MODEL 1
REMARK VINA RESULT:      -9.1      0.000      0.000
REMARK SMILES CCc1cc(NCCN(C)C)c2c(F)cc(CCc3cncc(-n4cc(-c5ccn(C)n5)c5c(N)ncnc54)c3)cc2n1
REMARK SMILES IDX 3 1 4 2 5 3 12 4 13 5 14 6 15 7 16 8 41 9 42 10 43 11 2 15
REMARK SMILES IDX 1 18 6 22 7 24 8 27 9 30 10 31 11 35 17 39 18 42 19 45 20 46
REMARK SMILES IDX 40 47 21 48 23 50 22 52 24 54 25 55 39 56 26 57 33 59 38 60
REMARK SMILES IDX 34 61 37 62 36 63 27 65 28 66 32 67 29 68 30 70 31 72 35 76
REMARK H PARENT 4 12 15 13 41 14 2 16 2 17 1 19 1 20 1 21 6 23 7 25 7 26 8 28
REMARK H PARENT 8 29 10 32 10 33 10 34 11 36 11 37 11 38 17 40 17 41 18 43
REMARK H PARENT 18 44 20 49 40 51 22 53 25 58 37 64 28 69 29 71 31 73 31 74
REMARK H PARENT 31 75 35 77 35 78
REMARK Flexibility Score: inf
ROOT
ATOM      1  C   UNL     1     -46.383  31.139  21.807  1.00  0.00     0.043 A 
ATOM      2  C   UNL     1     -47.402  30.220  22.010  1.00  0.00    -0.017 A 
ATOM      3  C   UNL     1     -48.049  30.166  23.247  1.00  0.00     0.048 A 
ATOM      4  C   UNL     1     -47.688  31.123  24.237  1.00  0.00     0.059 A 
ATOM      5  C   UNL     1     -48.295  31.244  25.506  1.00  0.00     0.134 A 
ATOM      6  F   UNL     1     -49.309  30.432  25.853  1.00  0.00    -0.206 F 
ATOM      7  C   UNL     1     -47.888  32.187  26.447  1.00  0.00    -0.022 A 
ATOM      8  C   UNL     1     -46.844  33.054  26.144  1.00  0.00    -0.043 A 
ATOM      9  C   UNL     1     -46.238  32.949  24.884  1.00  0.00    -0.032 A 
ATOM     10  C   UNL     1     -46.635  32.013  23.936  1.00  0.00     0.076 A 
ATOM     11  N   UNL     1     -45.985  32.005  22.763  1.00  0.00    -0.253 NA
ATOM     12  H   UNL     1     -47.700  29.570  21.195  1.00  0.00     0.066 H 
ATOM     13  H   UNL     1     -48.397  32.226  27.405  1.00  0.00     0.066 H 
ATOM     14  H   UNL     1     -45.428  33.629  24.617  1.00  0.00     0.065 H 
ENDROOT
BRANCH   1  15
ATOM     15  C   UNL     1     -45.650  31.194  20.493  1.00  0.00    -0.013 C 
ATOM     16  H   UNL     1     -44.610  31.499  20.656  1.00  0.00     0.033 H 
ATOM     17  H   UNL     1     -45.615  30.187  20.059  1.00  0.00     0.033 H 
BRANCH  15  18
ATOM     18  C   UNL     1     -46.326  32.142  19.515  1.00  0.00    -0.060 C 
ATOM     19  H   UNL     1     -47.263  31.718  19.135  1.00  0.00     0.023 H 
ATOM     20  H   UNL     1     -45.670  32.336  18.660  1.00  0.00     0.023 H 
ATOM     21  H   UNL     1     -46.560  33.101  19.988  1.00  0.00     0.023 H 
ENDBRANCH  15  18
ENDBRANCH   1  15
BRANCH   3  22
ATOM     22  N   UNL     1     -49.118  29.261  23.457  1.00  0.00    -0.383 N 
ATOM     23  H   UNL     1     -49.445  29.344  24.427  1.00  0.00     0.160 HD
BRANCH  22  24
ATOM     24  C   UNL     1     -48.865  27.836  23.198  1.00  0.00     0.027 C 
ATOM     25  H   UNL     1     -47.817  27.558  23.348  1.00  0.00     0.050 H 
ATOM     26  H   UNL     1     -49.067  27.652  22.137  1.00  0.00     0.050 H 
BRANCH  24  27
ATOM     27  C   UNL     1     -49.779  26.932  24.061  1.00  0.00     0.015 C 
ATOM     28  H   UNL     1     -50.221  26.185  23.389  1.00  0.00     0.045 H 
ATOM     29  H   UNL     1     -50.610  27.531  24.456  1.00  0.00     0.045 H 
BRANCH  27  30
ATOM     30  N   UNL     1     -49.074  26.226  25.157  1.00  0.00    -0.308 NA
BRANCH  30  31
ATOM     31  C   UNL     1     -48.196  27.123  25.909  1.00  0.00    -0.014 C 
ATOM     32  H   UNL     1     -48.599  28.142  25.912  1.00  0.00     0.039 H 
ATOM     33  H   UNL     1     -48.126  26.824  26.960  1.00  0.00     0.039 H 
ATOM     34  H   UNL     1     -47.183  27.157  25.490  1.00  0.00     0.039 H 
ENDBRANCH  30  31
BRANCH  30  35
ATOM     35  C   UNL     1     -50.045  25.604  26.058  1.00  0.00    -0.014 C 
ATOM     36  H   UNL     1     -49.903  25.917  27.098  1.00  0.00     0.039 H 
ATOM     37  H   UNL     1     -51.068  25.856  25.756  1.00  0.00     0.039 H 
ATOM     38  H   UNL     1     -49.968  24.511  26.012  1.00  0.00     0.039 H 
ENDBRANCH  30  35
ENDBRANCH  27  30
ENDBRANCH  24  27
ENDBRANCH  22  24
ENDBRANCH   3  22
BRANCH   8  39
ATOM     39  C   UNL     1     -46.388  34.096  27.136  1.00  0.00    -0.024 C 
ATOM     40  H   UNL     1     -45.307  34.259  27.037  1.00  0.00     0.032 H 
ATOM     41  H   UNL     1     -46.533  33.690  28.146  1.00  0.00     0.032 H 
BRANCH  39  42
ATOM     42  C   UNL     1     -47.147  35.424  27.022  1.00  0.00    -0.022 C 
ATOM     43  H   UNL     1     -48.099  35.337  27.562  1.00  0.00     0.032 H 
ATOM     44  H   UNL     1     -47.418  35.624  25.977  1.00  0.00     0.032 H 
BRANCH  42  45
ATOM     45  C   UNL     1     -46.395  36.599  27.589  1.00  0.00    -0.027 A 
ATOM     46  C   UNL     1     -45.697  36.495  28.784  1.00  0.00     0.030 A 
ATOM     47  C   UNL     1     -46.389  37.842  26.940  1.00  0.00    -0.032 A 
ATOM     48  N   UNL     1     -45.011  37.513  29.341  1.00  0.00    -0.262 NA
ATOM     49  H   UNL     1     -45.671  35.567  29.350  1.00  0.00     0.084 H 
ATOM     50  C   UNL     1     -45.696  38.931  27.490  1.00  0.00     0.066 A 
ATOM     51  H   UNL     1     -46.947  37.925  26.013  1.00  0.00     0.065 H 
ATOM     52  C   UNL     1     -45.029  38.704  28.688  1.00  0.00     0.051 A 
ATOM     53  H   UNL     1     -44.451  39.460  29.206  1.00  0.00     0.086 H 
BRANCH  50  54
ATOM     54  N   UNL     1     -45.682  40.208  26.837  1.00  0.00    -0.299 N 
ATOM     55  C   UNL     1     -44.627  40.707  26.096  1.00  0.00     0.021 A 
ATOM     56  C   UNL     1     -46.691  41.177  26.811  1.00  0.00     0.150 A 
ATOM     57  C   UNL     1     -44.940  41.965  25.631  1.00  0.00     0.033 A 
ATOM     58  H   UNL     1     -43.707  40.160  25.958  1.00  0.00     0.083 H 
ATOM     59  C   UNL     1     -46.265  42.260  26.039  1.00  0.00     0.071 A 
ATOM     60  N   UNL     1     -47.895  41.090  27.411  1.00  0.00    -0.218 NA
ATOM     61  C   UNL     1     -47.190  43.302  25.849  1.00  0.00     0.137 A 
ATOM     62  C   UNL     1     -48.673  42.154  27.187  1.00  0.00     0.120 A 
ATOM     63  N   UNL     1     -48.393  43.234  26.445  1.00  0.00    -0.219 NA
ATOM     64  H   UNL     1     -49.652  42.139  27.658  1.00  0.00     0.106 H 
BRANCH  57  65
ATOM     65  C   UNL     1     -44.041  42.811  24.852  1.00  0.00     0.095 A 
ATOM     66  C   UNL     1     -42.692  43.081  25.168  1.00  0.00    -0.016 A 
ATOM     67  N   UNL     1     -44.406  43.374  23.694  1.00  0.00    -0.173 NA
ATOM     68  C   UNL     1     -42.243  43.882  24.143  1.00  0.00     0.025 A 
ATOM     69  H   UNL     1     -42.122  42.736  26.019  1.00  0.00     0.066 H 
ATOM     70  N   UNL     1     -43.300  44.027  23.293  1.00  0.00    -0.275 N 
ATOM     71  H   UNL     1     -41.282  44.339  23.952  1.00  0.00     0.084 H 
BRANCH  70  72
ATOM     72  C   UNL     1     -43.326  44.773  22.058  1.00  0.00     0.030 C 
ATOM     73  H   UNL     1     -43.847  44.191  21.293  1.00  0.00     0.048 H 
ATOM     74  H   UNL     1     -42.295  44.960  21.746  1.00  0.00     0.048 H 
ATOM     75  H   UNL     1     -43.852  45.714  22.235  1.00  0.00     0.048 H 
ENDBRANCH  70  72
ENDBRANCH  57  65
BRANCH  61  76
ATOM     76  N   UNL     1     -46.978  44.413  25.040  1.00  0.00    -0.383 N 
ATOM     77  H   UNL     1     -47.761  44.520  24.404  1.00  0.00     0.158 HD
ATOM     78  H   UNL     1     -46.066  44.426  24.601  1.00  0.00     0.158 HD
ENDBRANCH  61  76
ENDBRANCH  50  54
ENDBRANCH  42  45
ENDBRANCH  39  42
ENDBRANCH   8  39
TORSDOF 15
ENDMDL
MODEL 2
REMARK VINA RESULT:      -9.1      2.653     12.860
REMARK SMILES CCc1cc(NCCN(C)C)c2c(F)cc(CCc3cncc(-n4cc(-c5ccn(C)n5)c5c(N)ncnc54)c3)cc2n1
REMARK SMILES IDX 3 1 4 2 5 3 12 4 13 5 14 6 15 7 16 8 41 9 42 10 43 11 2 15
REMARK SMILES IDX 1 18 6 22 7 24 8 27 9 30 10 31 11 35 17 39 18 42 19 45 20 46
REMARK SMILES IDX 40 47 21 48 23 50 22 52 24 54 25 55 39 56 26 57 33 59 38 60
REMARK SMILES IDX 34 61 37 62 36 63 27 65 28 66 32 67 29 68 30 70 31 72 35 76
REMARK H PARENT 4 12 15 13 41 14 2 16 2 17 1 19 1 20 1 21 6 23 7 25 7 26 8 28
REMARK H PARENT 8 29 10 32 10 33 10 34 11 36 11 37 11 38 17 40 17 41 18 43
REMARK H PARENT 18 44 20 49 40 51 22 53 25 58 37 64 28 69 29 71 31 73 31 74
REMARK H PARENT 31 75 35 77 35 78
REMARK Flexibility Score: inf
ROOT
ATOM      1  C   UNL     1     -43.391  39.983  29.078  1.00  0.00     0.043 A 
ATOM      2  C   UNL     1     -43.641  40.899  28.067  1.00  0.00    -0.017 A 
ATOM      3  C   UNL     1     -44.750  40.725  27.235  1.00  0.00     0.048 A 
ATOM      4  C   UNL     1     -45.635  39.645  27.511  1.00  0.00     0.059 A 
ATOM      5  C   UNL     1     -46.831  39.378  26.808  1.00  0.00     0.134 A 
ATOM      6  F   UNL     1     -47.222  40.182  25.804  1.00  0.00    -0.206 F 
ATOM      7  C   UNL     1     -47.652  38.294  27.108  1.00  0.00    -0.022 A 
ATOM      8  C   UNL     1     -47.299  37.427  28.137  1.00  0.00    -0.043 A 
ATOM      9  C   UNL     1     -46.118  37.686  28.847  1.00  0.00    -0.032 A 
ATOM     10  C   UNL     1     -45.290  38.765  28.559  1.00  0.00     0.076 A 
ATOM     11  N   UNL     1     -44.187  38.917  29.305  1.00  0.00    -0.253 NA
ATOM     12  H   UNL     1     -42.985  41.754  27.951  1.00  0.00     0.066 H 
ATOM     13  H   UNL     1     -48.557  38.145  26.527  1.00  0.00     0.066 H 
ATOM     14  H   UNL     1     -45.828  37.030  29.669  1.00  0.00     0.065 H 
ENDROOT
BRANCH   1  15
ATOM     15  C   UNL     1     -42.185  40.134  29.967  1.00  0.00    -0.013 C 
ATOM     16  H   UNL     1     -42.466  39.953  31.012  1.00  0.00     0.033 H 
ATOM     17  H   UNL     1     -41.447  39.367  29.706  1.00  0.00     0.033 H 
BRANCH  15  18
ATOM     18  C   UNL     1     -41.555  41.510  29.826  1.00  0.00    -0.060 C 
ATOM     19  H   UNL     1     -42.321  42.287  29.725  1.00  0.00     0.023 H 
ATOM     20  H   UNL     1     -40.916  41.545  28.937  1.00  0.00     0.023 H 
ATOM     21  H   UNL     1     -40.939  41.757  30.696  1.00  0.00     0.023 H 
ENDBRANCH  15  18
ENDBRANCH   1  15
BRANCH   3  22
ATOM     22  N   UNL     1     -45.041  41.672  26.223  1.00  0.00    -0.383 N 
ATOM     23  H   UNL     1     -45.680  41.249  25.538  1.00  0.00     0.160 HD
BRANCH  22  24
ATOM     24  C   UNL     1     -43.910  42.243  25.477  1.00  0.00     0.027 C 
ATOM     25  H   UNL     1     -43.308  41.480  24.972  1.00  0.00     0.050 H 
ATOM     26  H   UNL     1     -43.237  42.711  26.204  1.00  0.00     0.050 H 
BRANCH  24  27
ATOM     27  C   UNL     1     -44.383  43.305  24.454  1.00  0.00     0.015 C 
ATOM     28  H   UNL     1     -45.084  42.805  23.772  1.00  0.00     0.045 H 
ATOM     29  H   UNL     1     -43.529  43.628  23.847  1.00  0.00     0.045 H 
BRANCH  27  30
ATOM     30  N   UNL     1     -45.065  44.471  25.063  1.00  0.00    -0.308 NA
BRANCH  30  31
ATOM     31  C   UNL     1     -44.223  45.669  25.042  1.00  0.00    -0.014 C 
ATOM     32  H   UNL     1     -43.557  45.654  24.172  1.00  0.00     0.039 H 
ATOM     33  H   UNL     1     -44.826  46.577  24.945  1.00  0.00     0.039 H 
ATOM     34  H   UNL     1     -43.606  45.755  25.944  1.00  0.00     0.039 H 
ENDBRANCH  30  31
BRANCH  30  35
ATOM     35  C   UNL     1     -46.326  44.733  24.368  1.00  0.00    -0.014 C 
ATOM     36  H   UNL     1     -46.297  45.669  23.798  1.00  0.00     0.039 H 
ATOM     37  H   UNL     1     -46.565  43.914  23.681  1.00  0.00     0.039 H 
ATOM     38  H   UNL     1     -47.155  44.790  25.083  1.00  0.00     0.039 H 
ENDBRANCH  30  35
ENDBRANCH  27  30
ENDBRANCH  24  27
ENDBRANCH  22  24
ENDBRANCH   3  22
BRANCH   8  39
ATOM     39  C   UNL     1     -48.174  36.252  28.495  1.00  0.00    -0.024 C 
ATOM     40  H   UNL     1     -48.870  36.534  29.295  1.00  0.00     0.032 H 
ATOM     41  H   UNL     1     -47.534  35.470  28.925  1.00  0.00     0.032 H 
BRANCH  39  42
ATOM     42  C   UNL     1     -48.934  35.667  27.299  1.00  0.00    -0.022 C 
ATOM     43  H   UNL     1     -49.200  36.482  26.614  1.00  0.00     0.032 H 
ATOM     44  H   UNL     1     -49.888  35.232  27.624  1.00  0.00     0.032 H 
BRANCH  42  45
ATOM     45  C   UNL     1     -48.144  34.646  26.523  1.00  0.00    -0.027 A 
ATOM     46  C   UNL     1     -46.843  34.903  26.116  1.00  0.00     0.030 A 
ATOM     47  C   UNL     1     -48.703  33.409  26.169  1.00  0.00    -0.032 A 
ATOM     48  N   UNL     1     -46.091  34.030  25.416  1.00  0.00    -0.262 NA
ATOM     49  H   UNL     1     -46.352  35.846  26.341  1.00  0.00     0.084 H 
ATOM     50  C   UNL     1     -47.959  32.474  25.432  1.00  0.00     0.066 A 
ATOM     51  H   UNL     1     -49.725  33.216  26.475  1.00  0.00     0.065 H 
ATOM     52  C   UNL     1     -46.663  32.843  25.087  1.00  0.00     0.051 A 
ATOM     53  H   UNL     1     -45.987  32.206  24.530  1.00  0.00     0.086 H 
BRANCH  50  54
ATOM     54  N   UNL     1     -48.518  31.207  25.063  1.00  0.00    -0.299 N 
ATOM     55  C   UNL     1     -48.400  30.044  25.802  1.00  0.00     0.021 A 
ATOM     56  C   UNL     1     -49.269  30.890  23.926  1.00  0.00     0.150 A 
ATOM     57  C   UNL     1     -49.036  29.011  25.148  1.00  0.00     0.033 A 
ATOM     58  H   UNL     1     -47.856  30.003  26.734  1.00  0.00     0.083 H 
ATOM     59  C   UNL     1     -49.631  29.543  23.977  1.00  0.00     0.071 A 
ATOM     60  N   UNL     1     -49.617  31.741  22.939  1.00  0.00    -0.218 NA
ATOM     61  C   UNL     1     -50.454  29.070  22.938  1.00  0.00     0.137 A 
ATOM     62  C   UNL     1     -50.369  31.170  21.992  1.00  0.00     0.120 A 
ATOM     63  N   UNL     1     -50.804  29.904  21.943  1.00  0.00    -0.219 NA
ATOM     64  H   UNL     1     -50.667  31.810  21.167  1.00  0.00     0.106 H 
BRANCH  57  65
ATOM     65  C   UNL     1     -49.072  27.629  25.615  1.00  0.00     0.095 A 
ATOM     66  C   UNL     1     -50.240  26.867  25.831  1.00  0.00    -0.016 A 
ATOM     67  N   UNL     1     -47.962  26.913  25.826  1.00  0.00    -0.173 NA
ATOM     68  C   UNL     1     -49.786  25.630  26.226  1.00  0.00     0.025 A 
ATOM     69  H   UNL     1     -51.270  27.172  25.710  1.00  0.00     0.066 H 
ATOM     70  N   UNL     1     -48.424  25.708  26.208  1.00  0.00    -0.275 N 
ATOM     71  H   UNL     1     -50.308  24.724  26.501  1.00  0.00     0.084 H 
BRANCH  70  72
ATOM     72  C   UNL     1     -47.489  24.659  26.533  1.00  0.00     0.030 C 
ATOM     73  H   UNL     1     -46.678  24.655  25.800  1.00  0.00     0.048 H 
ATOM     74  H   UNL     1     -48.019  23.704  26.509  1.00  0.00     0.048 H 
ATOM     75  H   UNL     1     -47.088  24.853  27.532  1.00  0.00     0.048 H 
ENDBRANCH  70  72
ENDBRANCH  57  65
BRANCH  61  76
ATOM     76  N   UNL     1     -50.986  27.788  22.869  1.00  0.00    -0.383 N 
ATOM     77  H   UNL     1     -51.556  27.616  23.691  1.00  0.00     0.158 HD
ATOM     78  H   UNL     1     -50.297  27.073  22.671  1.00  0.00     0.158 HD
ENDBRANCH  61  76
ENDBRANCH  50  54
ENDBRANCH  42  45
ENDBRANCH  39  42
ENDBRANCH   8  39
TORSDOF 15
ENDMDL
MODEL 3
REMARK VINA RESULT:      -9.0      1.638      2.479
REMARK SMILES CCc1cc(NCCN(C)C)c2c(F)cc(CCc3cncc(-n4cc(-c5ccn(C)n5)c5c(N)ncnc54)c3)cc2n1
REMARK SMILES IDX 3 1 4 2 5 3 12 4 13 5 14 6 15 7 16 8 41 9 42 10 43 11 2 15
REMARK SMILES IDX 1 18 6 22 7 24 8 27 9 30 10 31 11 35 17 39 18 42 19 45 20 46
REMARK SMILES IDX 40 47 21 48 23 50 22 52 24 54 25 55 39 56 26 57 33 59 38 60
REMARK SMILES IDX 34 61 37 62 36 63 27 65 28 66 32 67 29 68 30 70 31 72 35 76
REMARK H PARENT 4 12 15 13 41 14 2 16 2 17 1 19 1 20 1 21 6 23 7 25 7 26 8 28
REMARK H PARENT 8 29 10 32 10 33 10 34 11 36 11 37 11 38 17 40 17 41 18 43
REMARK H PARENT 18 44 20 49 40 51 22 53 25 58 37 64 28 69 29 71 31 73 31 74
REMARK H PARENT 31 75 35 77 35 78
REMARK Flexibility Score: inf
ROOT
ATOM      1  C   UNL     1     -46.433  30.948  21.776  1.00  0.00     0.043 A 
ATOM      2  C   UNL     1     -47.415  29.979  21.929  1.00  0.00    -0.017 A 
ATOM      3  C   UNL     1     -48.074  29.852  23.153  1.00  0.00     0.048 A 
ATOM      4  C   UNL     1     -47.766  30.784  24.184  1.00  0.00     0.059 A 
ATOM      5  C   UNL     1     -48.395  30.831  25.449  1.00  0.00     0.134 A 
ATOM      6  F   UNL     1     -49.377  29.964  25.750  1.00  0.00    -0.206 F 
ATOM      7  C   UNL     1     -48.039  31.753  26.430  1.00  0.00    -0.022 A 
ATOM      8  C   UNL     1     -47.029  32.674  26.175  1.00  0.00    -0.043 A 
ATOM      9  C   UNL     1     -46.404  32.643  24.920  1.00  0.00    -0.032 A 
ATOM     10  C   UNL     1     -46.749  31.728  23.932  1.00  0.00     0.076 A 
ATOM     11  N   UNL     1     -46.085  31.793  22.769  1.00  0.00    -0.253 NA
ATOM     12  H   UNL     1     -47.675  29.350  21.086  1.00  0.00     0.066 H 
ATOM     13  H   UNL     1     -48.562  31.733  27.382  1.00  0.00     0.066 H 
ATOM     14  H   UNL     1     -45.620  33.366  24.690  1.00  0.00     0.065 H 
ENDROOT
BRANCH   1  15
ATOM     15  C   UNL     1     -45.687  31.084  20.474  1.00  0.00    -0.013 C 
ATOM     16  H   UNL     1     -44.645  31.366  20.668  1.00  0.00     0.033 H 
ATOM     17  H   UNL     1     -45.658  30.109  19.973  1.00  0.00     0.033 H 
BRANCH  15  18
ATOM     18  C   UNL     1     -46.344  32.104  19.557  1.00  0.00    -0.060 C 
ATOM     19  H   UNL     1     -45.636  32.889  19.268  1.00  0.00     0.023 H 
ATOM     20  H   UNL     1     -47.190  32.579  20.064  1.00  0.00     0.023 H 
ATOM     21  H   UNL     1     -46.717  31.634  18.642  1.00  0.00     0.023 H 
ENDBRANCH  15  18
ENDBRANCH   1  15
BRANCH   3  22
ATOM     22  N   UNL     1     -49.106  28.895  23.314  1.00  0.00    -0.383 N 
ATOM     23  H   UNL     1     -50.008  29.381  23.396  1.00  0.00     0.160 HD
BRANCH  22  24
ATOM     24  C   UNL     1     -49.003  27.966  24.449  1.00  0.00     0.027 C 
ATOM     25  H   UNL     1     -49.818  27.235  24.473  1.00  0.00     0.050 H 
ATOM     26  H   UNL     1     -49.111  28.553  25.367  1.00  0.00     0.050 H 
BRANCH  24  27
ATOM     27  C   UNL     1     -47.639  27.235  24.461  1.00  0.00     0.015 C 
ATOM     28  H   UNL     1     -46.892  27.951  24.829  1.00  0.00     0.045 H 
ATOM     29  H   UNL     1     -47.354  26.984  23.431  1.00  0.00     0.045 H 
BRANCH  27  30
ATOM     30  N   UNL     1     -47.603  26.030  25.322  1.00  0.00    -0.308 NA
BRANCH  30  31
ATOM     31  C   UNL     1     -46.663  26.179  26.434  1.00  0.00    -0.014 C 
ATOM     32  H   UNL     1     -46.025  25.292  26.518  1.00  0.00     0.039 H 
ATOM     33  H   UNL     1     -45.985  27.023  26.271  1.00  0.00     0.039 H 
ATOM     34  H   UNL     1     -47.175  26.325  27.392  1.00  0.00     0.039 H 
ENDBRANCH  30  31
BRANCH  30  35
ATOM     35  C   UNL     1     -48.943  25.742  25.835  1.00  0.00    -0.014 C 
ATOM     36  H   UNL     1     -49.689  26.457  25.470  1.00  0.00     0.039 H 
ATOM     37  H   UNL     1     -49.258  24.733  25.546  1.00  0.00     0.039 H 
ATOM     38  H   UNL     1     -48.950  25.765  26.932  1.00  0.00     0.039 H 
ENDBRANCH  30  35
ENDBRANCH  27  30
ENDBRANCH  24  27
ENDBRANCH  22  24
ENDBRANCH   3  22
BRANCH   8  39
ATOM     39  C   UNL     1     -46.631  33.695  27.211  1.00  0.00    -0.024 C 
ATOM     40  H   UNL     1     -45.549  33.647  27.386  1.00  0.00     0.032 H 
ATOM     41  H   UNL     1     -47.096  33.411  28.165  1.00  0.00     0.032 H 
BRANCH  39  42
ATOM     42  C   UNL     1     -47.058  35.125  26.859  1.00  0.00    -0.022 C 
ATOM     43  H   UNL     1     -48.154  35.174  26.838  1.00  0.00     0.032 H 
ATOM     44  H   UNL     1     -46.731  35.385  25.843  1.00  0.00     0.032 H 
BRANCH  42  45
ATOM     45  C   UNL     1     -46.564  36.160  27.835  1.00  0.00    -0.027 A 
ATOM     46  C   UNL     1     -46.665  35.961  29.205  1.00  0.00     0.030 A 
ATOM     47  C   UNL     1     -46.003  37.367  27.395  1.00  0.00    -0.032 A 
ATOM     48  N   UNL     1     -46.245  36.853  30.124  1.00  0.00    -0.262 NA
ATOM     49  H   UNL     1     -47.104  35.056  29.618  1.00  0.00     0.084 H 
ATOM     50  C   UNL     1     -45.561  38.328  28.318  1.00  0.00     0.066 A 
ATOM     51  H   UNL     1     -45.938  37.527  26.324  1.00  0.00     0.065 H 
ATOM     52  C   UNL     1     -45.709  38.013  29.663  1.00  0.00     0.051 A 
ATOM     53  H   UNL     1     -45.398  38.666  30.470  1.00  0.00     0.086 H 
BRANCH  50  54
ATOM     54  N   UNL     1     -44.986  39.567  27.881  1.00  0.00    -0.299 N 
ATOM     55  C   UNL     1     -45.448  40.323  26.819  1.00  0.00     0.021 A 
ATOM     56  C   UNL     1     -43.885  40.246  28.413  1.00  0.00     0.150 A 
ATOM     57  C   UNL     1     -44.653  41.438  26.662  1.00  0.00     0.033 A 
ATOM     58  H   UNL     1     -46.294  40.023  26.219  1.00  0.00     0.083 H 
ATOM     59  C   UNL     1     -43.683  41.426  27.695  1.00  0.00     0.071 A 
ATOM     60  N   UNL     1     -43.138  39.850  29.464  1.00  0.00    -0.218 NA
ATOM     61  C   UNL     1     -42.651  42.269  28.143  1.00  0.00     0.137 A 
ATOM     62  C   UNL     1     -42.168  40.715  29.776  1.00  0.00     0.120 A 
ATOM     63  N   UNL     1     -41.893  41.887  29.186  1.00  0.00    -0.219 NA
ATOM     64  H   UNL     1     -41.529  40.439  30.610  1.00  0.00     0.106 H 
BRANCH  57  65
ATOM     65  C   UNL     1     -44.818  42.434  25.608  1.00  0.00     0.095 A 
ATOM     66  C   UNL     1     -45.939  43.276  25.444  1.00  0.00    -0.016 A 
ATOM     67  N   UNL     1     -43.861  42.695  24.710  1.00  0.00    -0.173 NA
ATOM     68  C   UNL     1     -45.634  44.062  24.358  1.00  0.00     0.025 A 
ATOM     69  H   UNL     1     -46.842  43.310  26.038  1.00  0.00     0.066 H 
ATOM     70  N   UNL     1     -44.388  43.678  23.957  1.00  0.00    -0.275 N 
ATOM     71  H   UNL     1     -46.184  44.848  23.859  1.00  0.00     0.084 H 
BRANCH  70  72
ATOM     72  C   UNL     1     -43.623  44.218  22.859  1.00  0.00     0.030 C 
ATOM     73  H   UNL     1     -44.143  45.086  22.446  1.00  0.00     0.048 H 
ATOM     74  H   UNL     1     -43.526  43.443  22.094  1.00  0.00     0.048 H 
ATOM     75  H   UNL     1     -42.641  44.514  23.235  1.00  0.00     0.048 H 
ENDBRANCH  70  72
ENDBRANCH  57  65
BRANCH  61  76
ATOM     76  N   UNL     1     -42.362  43.521  27.612  1.00  0.00    -0.383 N 
ATOM     77  H   UNL     1     -41.400  43.537  27.293  1.00  0.00     0.158 HD
ATOM     78  H   UNL     1     -42.624  44.288  28.219  1.00  0.00     0.158 HD
ENDBRANCH  61  76
ENDBRANCH  50  54
ENDBRANCH  42  45
ENDBRANCH  39  42
ENDBRANCH   8  39
TORSDOF 15
ENDMDL
MODEL 4
REMARK VINA RESULT:      -8.6      2.107      3.062
REMARK SMILES CCc1cc(NCCN(C)C)c2c(F)cc(CCc3cncc(-n4cc(-c5ccn(C)n5)c5c(N)ncnc54)c3)cc2n1
REMARK SMILES IDX 3 1 4 2 5 3 12 4 13 5 14 6 15 7 16 8 41 9 42 10 43 11 2 15
REMARK SMILES IDX 1 18 6 22 7 24 8 27 9 30 10 31 11 35 17 39 18 42 19 45 20 46
REMARK SMILES IDX 40 47 21 48 23 50 22 52 24 54 25 55 39 56 26 57 33 59 38 60
REMARK SMILES IDX 34 61 37 62 36 63 27 65 28 66 32 67 29 68 30 70 31 72 35 76
REMARK H PARENT 4 12 15 13 41 14 2 16 2 17 1 19 1 20 1 21 6 23 7 25 7 26 8 28
REMARK H PARENT 8 29 10 32 10 33 10 34 11 36 11 37 11 38 17 40 17 41 18 43
REMARK H PARENT 18 44 20 49 40 51 22 53 25 58 37 64 28 69 29 71 31 73 31 74
REMARK H PARENT 31 75 35 77 35 78
REMARK Flexibility Score: inf
ROOT
ATOM      1  C   UNL     1     -46.392  30.358  22.457  1.00  0.00     0.043 A 
ATOM      2  C   UNL     1     -47.728  30.173  22.132  1.00  0.00    -0.017 A 
ATOM      3  C   UNL     1     -48.720  30.729  22.944  1.00  0.00     0.048 A 
ATOM      4  C   UNL     1     -48.315  31.539  24.042  1.00  0.00     0.059 A 
ATOM      5  C   UNL     1     -49.193  32.225  24.910  1.00  0.00     0.134 A 
ATOM      6  F   UNL     1     -50.523  32.157  24.723  1.00  0.00    -0.206 F 
ATOM      7  C   UNL     1     -48.743  32.989  25.984  1.00  0.00    -0.022 A 
ATOM      8  C   UNL     1     -47.377  33.096  26.227  1.00  0.00    -0.043 A 
ATOM      9  C   UNL     1     -46.495  32.427  25.368  1.00  0.00    -0.032 A 
ATOM     10  C   UNL     1     -46.932  31.661  24.292  1.00  0.00     0.076 A 
ATOM     11  N   UNL     1     -45.998  31.067  23.535  1.00  0.00    -0.253 NA
ATOM     12  H   UNL     1     -47.985  29.621  21.236  1.00  0.00     0.066 H 
ATOM     13  H   UNL     1     -49.472  33.490  26.614  1.00  0.00     0.066 H 
ATOM     14  H   UNL     1     -45.420  32.508  25.528  1.00  0.00     0.065 H 
ENDROOT
BRANCH   1  15
ATOM     15  C   UNL     1     -45.307  29.742  21.613  1.00  0.00    -0.013 C 
ATOM     16  H   UNL     1     -45.750  29.230  20.750  1.00  0.00     0.033 H 
ATOM     17  H   UNL     1     -44.670  30.538  21.210  1.00  0.00     0.033 H 
BRANCH  15  18
ATOM     18  C   UNL     1     -44.456  28.772  22.417  1.00  0.00    -0.060 C 
ATOM     19  H   UNL     1     -43.417  29.116  22.481  1.00  0.00     0.023 H 
ATOM     20  H   UNL     1     -44.458  27.784  21.944  1.00  0.00     0.023 H 
ATOM     21  H   UNL     1     -44.836  28.660  23.438  1.00  0.00     0.023 H 
ENDBRANCH  15  18
ENDBRANCH   1  15
BRANCH   3  22
ATOM     22  N   UNL     1     -50.087  30.584  22.604  1.00  0.00    -0.383 N 
ATOM     23  H   UNL     1     -50.562  30.041  23.337  1.00  0.00     0.160 HD
BRANCH  22  24
ATOM     24  C   UNL     1     -50.406  29.954  21.314  1.00  0.00     0.027 C 
ATOM     25  H   UNL     1     -49.545  29.449  20.866  1.00  0.00     0.050 H 
ATOM     26  H   UNL     1     -50.674  30.752  20.614  1.00  0.00     0.050 H 
BRANCH  24  27
ATOM     27  C   UNL     1     -51.589  28.964  21.445  1.00  0.00     0.015 C 
ATOM     28  H   UNL     1     -51.994  28.811  20.436  1.00  0.00     0.045 H 
ATOM     29  H   UNL     1     -52.387  29.429  22.037  1.00  0.00     0.045 H 
BRANCH  27  30
ATOM     30  N   UNL     1     -51.218  27.645  22.010  1.00  0.00    -0.308 NA
BRANCH  30  31
ATOM     31  C   UNL     1     -51.531  27.554  23.437  1.00  0.00    -0.014 C 
ATOM     32  H   UNL     1     -51.522  28.549  23.896  1.00  0.00     0.039 H 
ATOM     33  H   UNL     1     -52.538  27.157  23.599  1.00  0.00     0.039 H 
ATOM     34  H   UNL     1     -50.817  26.922  23.977  1.00  0.00     0.039 H 
ENDBRANCH  30  31
BRANCH  30  35
ATOM     35  C   UNL     1     -51.899  26.577  21.279  1.00  0.00    -0.014 C 
ATOM     36  H   UNL     1     -51.217  25.763  21.005  1.00  0.00     0.039 H 
ATOM     37  H   UNL     1     -52.715  26.159  21.878  1.00  0.00     0.039 H 
ATOM     38  H   UNL     1     -52.356  26.967  20.362  1.00  0.00     0.039 H 
ENDBRANCH  30  35
ENDBRANCH  27  30
ENDBRANCH  24  27
ENDBRANCH  22  24
ENDBRANCH   3  22
BRANCH   8  39
ATOM     39  C   UNL     1     -46.857  33.928  27.373  1.00  0.00    -0.024 C 
ATOM     40  H   UNL     1     -45.761  33.974  27.334  1.00  0.00     0.032 H 
ATOM     41  H   UNL     1     -47.096  33.406  28.309  1.00  0.00     0.032 H 
BRANCH  39  42
ATOM     42  C   UNL     1     -47.455  35.339  27.427  1.00  0.00    -0.022 C 
ATOM     43  H   UNL     1     -48.485  35.274  27.803  1.00  0.00     0.032 H 
ATOM     44  H   UNL     1     -47.536  35.762  26.417  1.00  0.00     0.032 H 
BRANCH  42  45
ATOM     45  C   UNL     1     -46.693  36.284  28.318  1.00  0.00    -0.027 A 
ATOM     46  C   UNL     1     -46.555  36.035  29.677  1.00  0.00     0.030 A 
ATOM     47  C   UNL     1     -46.113  37.455  27.811  1.00  0.00    -0.032 A 
ATOM     48  N   UNL     1     -45.888  36.846  30.522  1.00  0.00    -0.262 NA
ATOM     49  H   UNL     1     -46.991  35.155  30.142  1.00  0.00     0.084 H 
ATOM     50  C   UNL     1     -45.419  38.334  28.658  1.00  0.00     0.066 A 
ATOM     51  H   UNL     1     -46.235  37.656  26.752  1.00  0.00     0.065 H 
ATOM     52  C   UNL     1     -45.341  37.974  29.998  1.00  0.00     0.051 A 
ATOM     53  H   UNL     1     -44.825  38.562  30.748  1.00  0.00     0.086 H 
BRANCH  50  54
ATOM     54  N   UNL     1     -44.822  39.535  28.152  1.00  0.00    -0.299 N 
ATOM     55  C   UNL     1     -45.282  40.248  27.060  1.00  0.00     0.021 A 
ATOM     56  C   UNL     1     -43.698  40.213  28.635  1.00  0.00     0.150 A 
ATOM     57  C   UNL     1     -44.464  41.335  26.837  1.00  0.00     0.033 A 
ATOM     58  H   UNL     1     -46.144  39.939  26.488  1.00  0.00     0.083 H 
ATOM     59  C   UNL     1     -43.479  41.351  27.856  1.00  0.00     0.071 A 
ATOM     60  N   UNL     1     -42.945  39.853  29.694  1.00  0.00    -0.218 NA
ATOM     61  C   UNL     1     -42.422  42.191  28.248  1.00  0.00     0.137 A 
ATOM     62  C   UNL     1     -41.950  40.709  29.949  1.00  0.00     0.120 A 
ATOM     63  N   UNL     1     -41.657  41.843  29.298  1.00  0.00    -0.219 NA
ATOM     64  H   UNL     1     -41.306  40.459  30.787  1.00  0.00     0.106 H 
BRANCH  57  65
ATOM     65  C   UNL     1     -44.622  42.281  25.737  1.00  0.00     0.095 A 
ATOM     66  C   UNL     1     -45.780  43.043  25.471  1.00  0.00    -0.016 A 
ATOM     67  N   UNL     1     -43.627  42.572  24.891  1.00  0.00    -0.173 NA
ATOM     68  C   UNL     1     -45.455  43.809  24.376  1.00  0.00     0.025 A 
ATOM     69  H   UNL     1     -46.720  43.040  26.006  1.00  0.00     0.066 H 
ATOM     70  N   UNL     1     -44.164  43.493  24.069  1.00  0.00    -0.275 N 
ATOM     71  H   UNL     1     -46.019  44.540  23.814  1.00  0.00     0.084 H 
BRANCH  70  72
ATOM     72  C   UNL     1     -43.364  44.042  23.001  1.00  0.00     0.030 C 
ATOM     73  H   UNL     1     -42.832  43.233  22.493  1.00  0.00     0.048 H 
ATOM     74  H   UNL     1     -42.649  44.746  23.433  1.00  0.00     0.048 H 
ATOM     75  H   UNL     1     -44.029  44.550  22.299  1.00  0.00     0.048 H 
ENDBRANCH  70  72
ENDBRANCH  57  65
BRANCH  61  76
ATOM     76  N   UNL     1     -42.113  43.408  27.651  1.00  0.00    -0.383 N 
ATOM     77  H   UNL     1     -42.970  43.869  27.366  1.00  0.00     0.158 HD
ATOM     78  H   UNL     1     -41.405  43.338  26.930  1.00  0.00     0.158 HD
ENDBRANCH  61  76
ENDBRANCH  50  54
ENDBRANCH  42  45
ENDBRANCH  39  42
ENDBRANCH   8  39
TORSDOF 15
ENDMDL
MODEL 5
REMARK VINA RESULT:      -8.4      2.450     13.002
REMARK SMILES CCc1cc(NCCN(C)C)c2c(F)cc(CCc3cncc(-n4cc(-c5ccn(C)n5)c5c(N)ncnc54)c3)cc2n1
REMARK SMILES IDX 3 1 4 2 5 3 12 4 13 5 14 6 15 7 16 8 41 9 42 10 43 11 2 15
REMARK SMILES IDX 1 18 6 22 7 24 8 27 9 30 10 31 11 35 17 39 18 42 19 45 20 46
REMARK SMILES IDX 40 47 21 48 23 50 22 52 24 54 25 55 39 56 26 57 33 59 38 60
REMARK SMILES IDX 34 61 37 62 36 63 27 65 28 66 32 67 29 68 30 70 31 72 35 76
REMARK H PARENT 4 12 15 13 41 14 2 16 2 17 1 19 1 20 1 21 6 23 7 25 7 26 8 28
REMARK H PARENT 8 29 10 32 10 33 10 34 11 36 11 37 11 38 17 40 17 41 18 43
REMARK H PARENT 18 44 20 49 40 51 22 53 25 58 37 64 28 69 29 71 31 73 31 74
REMARK H PARENT 31 75 35 77 35 78
REMARK Flexibility Score: inf
ROOT
ATOM      1  C   UNL     1     -48.392  42.441  26.332  1.00  0.00     0.043 A 
ATOM      2  C   UNL     1     -47.204  43.050  25.954  1.00  0.00    -0.017 A 
ATOM      3  C   UNL     1     -45.998  42.359  26.096  1.00  0.00     0.048 A 
ATOM      4  C   UNL     1     -46.044  41.012  26.552  1.00  0.00     0.059 A 
ATOM      5  C   UNL     1     -44.923  40.161  26.681  1.00  0.00     0.134 A 
ATOM      6  F   UNL     1     -43.698  40.599  26.344  1.00  0.00    -0.206 F 
ATOM      7  C   UNL     1     -45.023  38.855  27.154  1.00  0.00    -0.022 A 
ATOM      8  C   UNL     1     -46.265  38.348  27.518  1.00  0.00    -0.043 A 
ATOM      9  C   UNL     1     -47.386  39.180  27.388  1.00  0.00    -0.032 A 
ATOM     10  C   UNL     1     -47.301  40.485  26.917  1.00  0.00     0.076 A 
ATOM     11  N   UNL     1     -48.440  41.189  26.832  1.00  0.00    -0.253 NA
ATOM     12  H   UNL     1     -47.230  44.047  25.529  1.00  0.00     0.066 H 
ATOM     13  H   UNL     1     -44.121  38.255  27.230  1.00  0.00     0.066 H 
ATOM     14  H   UNL     1     -48.374  38.800  27.652  1.00  0.00     0.065 H 
ENDROOT
BRANCH   1  15
ATOM     15  C   UNL     1     -49.701  43.178  26.218  1.00  0.00    -0.013 C 
ATOM     16  H   UNL     1     -49.816  43.868  27.062  1.00  0.00     0.033 H 
ATOM     17  H   UNL     1     -49.688  43.795  25.311  1.00  0.00     0.033 H 
BRANCH  15  18
ATOM     18  C   UNL     1     -50.879  42.220  26.160  1.00  0.00    -0.060 C 
ATOM     19  H   UNL     1     -51.285  42.031  27.160  1.00  0.00     0.023 H 
ATOM     20  H   UNL     1     -50.567  41.260  25.733  1.00  0.00     0.023 H 
ATOM     21  H   UNL     1     -51.688  42.620  25.539  1.00  0.00     0.023 H 
ENDBRANCH  15  18
ENDBRANCH   1  15
BRANCH   3  22
ATOM     22  N   UNL     1     -44.781  42.951  25.677  1.00  0.00    -0.383 N 
ATOM     23  H   UNL     1     -44.136  42.997  26.475  1.00  0.00     0.160 HD
BRANCH  22  24
ATOM     24  C   UNL     1     -44.845  44.295  25.085  1.00  0.00     0.027 C 
ATOM     25  H   UNL     1     -44.193  45.013  25.592  1.00  0.00     0.050 H 
ATOM     26  H   UNL     1     -45.864  44.672  25.231  1.00  0.00     0.050 H 
BRANCH  24  27
ATOM     27  C   UNL     1     -44.520  44.264  23.572  1.00  0.00     0.015 C 
ATOM     28  H   UNL     1     -45.265  44.895  23.069  1.00  0.00     0.045 H 
ATOM     29  H   UNL     1     -44.662  43.244  23.192  1.00  0.00     0.045 H 
BRANCH  27  30
ATOM     30  N   UNL     1     -43.167  44.766  23.232  1.00  0.00    -0.308 NA
BRANCH  30  31
ATOM     31  C   UNL     1     -42.155  43.712  23.319  1.00  0.00    -0.014 C 
ATOM     32  H   UNL     1     -41.901  43.509  24.365  1.00  0.00     0.039 H 
ATOM     33  H   UNL     1     -42.528  42.768  22.910  1.00  0.00     0.039 H 
ATOM     34  H   UNL     1     -41.234  43.980  22.789  1.00  0.00     0.039 H 
ENDBRANCH  30  31
BRANCH  30  35
ATOM     35  C   UNL     1     -43.172  45.347  21.889  1.00  0.00    -0.014 C 
ATOM     36  H   UNL     1     -42.628  46.297  21.848  1.00  0.00     0.039 H 
ATOM     37  H   UNL     1     -42.720  44.656  21.168  1.00  0.00     0.039 H 
ATOM     38  H   UNL     1     -44.199  45.522  21.547  1.00  0.00     0.039 H 
ENDBRANCH  30  35
ENDBRANCH  27  30
ENDBRANCH  24  27
ENDBRANCH  22  24
ENDBRANCH   3  22
BRANCH   8  39
ATOM     39  C   UNL     1     -46.408  36.933  28.021  1.00  0.00    -0.024 C 
ATOM     40  H   UNL     1     -47.399  36.794  28.472  1.00  0.00     0.032 H 
ATOM     41  H   UNL     1     -45.690  36.788  28.839  1.00  0.00     0.032 H 
BRANCH  39  42
ATOM     42  C   UNL     1     -46.153  35.871  26.944  1.00  0.00    -0.022 C 
ATOM     43  H   UNL     1     -45.310  35.242  27.259  1.00  0.00     0.032 H 
ATOM     44  H   UNL     1     -45.833  36.344  26.006  1.00  0.00     0.032 H 
BRANCH  42  45
ATOM     45  C   UNL     1     -47.335  34.974  26.689  1.00  0.00    -0.027 A 
ATOM     46  C   UNL     1     -48.628  35.395  26.966  1.00  0.00     0.030 A 
ATOM     47  C   UNL     1     -47.169  33.678  26.180  1.00  0.00    -0.032 A 
ATOM     48  N   UNL     1     -49.722  34.634  26.762  1.00  0.00    -0.262 NA
ATOM     49  H   UNL     1     -48.831  36.380  27.377  1.00  0.00     0.084 H 
ATOM     50  C   UNL     1     -48.280  32.848  25.962  1.00  0.00     0.066 A 
ATOM     51  H   UNL     1     -46.156  33.346  25.978  1.00  0.00     0.065 H 
ATOM     52  C   UNL     1     -49.526  33.383  26.272  1.00  0.00     0.051 A 
ATOM     53  H   UNL     1     -50.458  32.847  26.138  1.00  0.00     0.086 H 
BRANCH  50  54
ATOM     54  N   UNL     1     -48.124  31.521  25.444  1.00  0.00    -0.299 N 
ATOM     55  C   UNL     1     -48.613  30.375  26.043  1.00  0.00     0.021 A 
ATOM     56  C   UNL     1     -47.474  31.120  24.272  1.00  0.00     0.150 A 
ATOM     57  C   UNL     1     -48.266  29.273  25.291  1.00  0.00     0.033 A 
ATOM     58  H   UNL     1     -49.156  30.395  26.976  1.00  0.00     0.083 H 
ATOM     59  C   UNL     1     -47.581  29.734  24.140  1.00  0.00     0.071 A 
ATOM     60  N   UNL     1     -46.855  31.929  23.388  1.00  0.00    -0.218 NA
ATOM     61  C   UNL     1     -47.037  29.167  22.973  1.00  0.00     0.137 A 
ATOM     62  C   UNL     1     -46.349  31.273  22.339  1.00  0.00     0.120 A 
ATOM     63  N   UNL     1     -46.412  29.959  22.084  1.00  0.00    -0.219 NA
ATOM     64  H   UNL     1     -45.829  31.878  21.601  1.00  0.00     0.106 H 
BRANCH  57  65
ATOM     65  C   UNL     1     -48.575  27.892  25.649  1.00  0.00     0.095 A 
ATOM     66  C   UNL     1     -49.867  27.325  25.691  1.00  0.00    -0.016 A 
ATOM     67  N   UNL     1     -47.624  26.989  25.916  1.00  0.00    -0.173 NA
ATOM     68  C   UNL     1     -49.664  26.010  26.036  1.00  0.00     0.025 A 
ATOM     69  H   UNL     1     -50.815  27.805  25.491  1.00  0.00     0.066 H 
ATOM     70  N   UNL     1     -48.314  25.859  26.159  1.00  0.00    -0.275 N 
ATOM     71  H   UNL     1     -50.351  25.190  26.190  1.00  0.00     0.084 H 
BRANCH  70  72
ATOM     72  C   UNL     1     -47.600  24.652  26.498  1.00  0.00     0.030 C 
ATOM     73  H   UNL     1     -47.829  23.876  25.762  1.00  0.00     0.048 H 
ATOM     74  H   UNL     1     -47.921  24.330  27.492  1.00  0.00     0.048 H 
ATOM     75  H   UNL     1     -46.529  24.871  26.491  1.00  0.00     0.048 H 
ENDBRANCH  70  72
ENDBRANCH  57  65
BRANCH  61  76
ATOM     76  N   UNL     1     -47.129  27.824  22.627  1.00  0.00    -0.383 N 
ATOM     77  H   UNL     1     -47.937  27.685  22.030  1.00  0.00     0.158 HD
ATOM     78  H   UNL     1     -47.070  27.197  23.420  1.00  0.00     0.158 HD
ENDBRANCH  61  76
ENDBRANCH  50  54
ENDBRANCH  42  45
ENDBRANCH  39  42
ENDBRANCH   8  39
TORSDOF 15
ENDMDL
MODEL 6
REMARK VINA RESULT:      -8.1      2.501     12.848
REMARK SMILES CCc1cc(NCCN(C)C)c2c(F)cc(CCc3cncc(-n4cc(-c5ccn(C)n5)c5c(N)ncnc54)c3)cc2n1
REMARK SMILES IDX 3 1 4 2 5 3 12 4 13 5 14 6 15 7 16 8 41 9 42 10 43 11 2 15
REMARK SMILES IDX 1 18 6 22 7 24 8 27 9 30 10 31 11 35 17 39 18 42 19 45 20 46
REMARK SMILES IDX 40 47 21 48 23 50 22 52 24 54 25 55 39 56 26 57 33 59 38 60
REMARK SMILES IDX 34 61 37 62 36 63 27 65 28 66 32 67 29 68 30 70 31 72 35 76
REMARK H PARENT 4 12 15 13 41 14 2 16 2 17 1 19 1 20 1 21 6 23 7 25 7 26 8 28
REMARK H PARENT 8 29 10 32 10 33 10 34 11 36 11 37 11 38 17 40 17 41 18 43
REMARK H PARENT 18 44 20 49 40 51 22 53 25 58 37 64 28 69 29 71 31 73 31 74
REMARK H PARENT 31 75 35 77 35 78
REMARK Flexibility Score: inf
ROOT
ATOM      1  C   UNL     1     -43.697  42.287  26.617  1.00  0.00     0.043 A 
ATOM      2  C   UNL     1     -44.823  42.991  26.211  1.00  0.00    -0.017 A 
ATOM      3  C   UNL     1     -46.074  42.372  26.247  1.00  0.00     0.048 A 
ATOM      4  C   UNL     1     -46.159  41.056  26.782  1.00  0.00     0.059 A 
ATOM      5  C   UNL     1     -47.357  40.325  26.951  1.00  0.00     0.134 A 
ATOM      6  F   UNL     1     -48.538  40.872  26.614  1.00  0.00    -0.206 F 
ATOM      7  C   UNL     1     -47.381  39.030  27.461  1.00  0.00    -0.022 A 
ATOM      8  C   UNL     1     -46.189  38.412  27.826  1.00  0.00    -0.043 A 
ATOM      9  C   UNL     1     -44.995  39.130  27.671  1.00  0.00    -0.032 A 
ATOM     10  C   UNL     1     -44.957  40.424  27.163  1.00  0.00     0.076 A 
ATOM     11  N   UNL     1     -43.758  41.014  27.061  1.00  0.00    -0.253 NA
ATOM     12  H   UNL     1     -44.718  44.022  25.894  1.00  0.00     0.066 H 
ATOM     13  H   UNL     1     -48.336  38.524  27.563  1.00  0.00     0.066 H 
ATOM     14  H   UNL     1     -44.049  38.673  27.965  1.00  0.00     0.065 H 
ENDROOT
BRANCH   1  15
ATOM     15  C   UNL     1     -42.334  42.923  26.558  1.00  0.00    -0.013 C 
ATOM     16  H   UNL     1     -42.274  43.598  25.695  1.00  0.00     0.033 H 
ATOM     17  H   UNL     1     -42.187  43.544  27.449  1.00  0.00     0.033 H 
BRANCH  15  18
ATOM     18  C   UNL     1     -41.232  41.878  26.482  1.00  0.00    -0.060 C 
ATOM     19  H   UNL     1     -41.580  40.909  26.854  1.00  0.00     0.023 H 
ATOM     20  H   UNL     1     -40.374  42.188  27.089  1.00  0.00     0.023 H 
ATOM     21  H   UNL     1     -40.886  41.738  25.453  1.00  0.00     0.023 H 
ENDBRANCH  15  18
ENDBRANCH   1  15
BRANCH   3  22
ATOM     22  N   UNL     1     -47.238  43.089  25.874  1.00  0.00    -0.383 N 
ATOM     23  H   UNL     1     -47.498  42.834  24.913  1.00  0.00     0.160 HD
BRANCH  22  24
ATOM     24  C   UNL     1     -47.184  44.557  25.941  1.00  0.00     0.027 C 
ATOM     25  H   UNL     1     -46.271  44.926  26.419  1.00  0.00     0.050 H 
ATOM     26  H   UNL     1     -48.006  44.888  26.585  1.00  0.00     0.050 H 
BRANCH  24  27
ATOM     27  C   UNL     1     -47.340  45.194  24.538  1.00  0.00     0.015 C 
ATOM     28  H   UNL     1     -47.196  44.392  23.802  1.00  0.00     0.045 H 
ATOM     29  H   UNL     1     -46.532  45.918  24.378  1.00  0.00     0.045 H 
BRANCH  27  30
ATOM     30  N   UNL     1     -48.661  45.822  24.301  1.00  0.00    -0.308 NA
BRANCH  30  31
ATOM     31  C   UNL     1     -48.535  47.214  23.867  1.00  0.00    -0.014 C 
ATOM     32  H   UNL     1     -47.542  47.394  23.439  1.00  0.00     0.039 H 
ATOM     33  H   UNL     1     -49.252  47.450  23.074  1.00  0.00     0.039 H 
ATOM     34  H   UNL     1     -48.685  47.919  24.693  1.00  0.00     0.039 H 
ENDBRANCH  30  31
BRANCH  30  35
ATOM     35  C   UNL     1     -49.409  45.053  23.306  1.00  0.00    -0.014 C 
ATOM     36  H   UNL     1     -50.211  44.458  23.759  1.00  0.00     0.039 H 
ATOM     37  H   UNL     1     -49.852  45.719  22.557  1.00  0.00     0.039 H 
ATOM     38  H   UNL     1     -48.742  44.374  22.761  1.00  0.00     0.039 H 
ENDBRANCH  30  35
ENDBRANCH  27  30
ENDBRANCH  24  27
ENDBRANCH  22  24
ENDBRANCH   3  22
BRANCH   8  39
ATOM     39  C   UNL     1     -46.183  37.015  28.395  1.00  0.00    -0.024 C 
ATOM     40  H   UNL     1     -47.130  36.818  28.912  1.00  0.00     0.032 H 
ATOM     41  H   UNL     1     -45.408  36.967  29.171  1.00  0.00     0.032 H 
BRANCH  39  42
ATOM     42  C   UNL     1     -45.904  35.929  27.348  1.00  0.00    -0.022 C 
ATOM     43  H   UNL     1     -45.150  35.237  27.746  1.00  0.00     0.032 H 
ATOM     44  H   UNL     1     -45.454  36.368  26.448  1.00  0.00     0.032 H 
BRANCH  42  45
ATOM     45  C   UNL     1     -47.121  35.126  26.972  1.00  0.00    -0.027 A 
ATOM     46  C   UNL     1     -48.400  35.595  27.239  1.00  0.00     0.030 A 
ATOM     47  C   UNL     1     -47.005  33.871  26.358  1.00  0.00    -0.032 A 
ATOM     48  N   UNL     1     -49.524  34.918  26.930  1.00  0.00    -0.262 NA
ATOM     49  H   UNL     1     -48.566  36.552  27.727  1.00  0.00     0.084 H 
ATOM     50  C   UNL     1     -48.149  33.128  26.028  1.00  0.00     0.066 A 
ATOM     51  H   UNL     1     -46.004  33.500  26.164  1.00  0.00     0.065 H 
ATOM     52  C   UNL     1     -49.376  33.705  26.338  1.00  0.00     0.051 A 
ATOM     53  H   UNL     1     -50.329  33.237  26.125  1.00  0.00     0.086 H 
BRANCH  50  54
ATOM     54  N   UNL     1     -48.044  31.843  25.401  1.00  0.00    -0.299 N 
ATOM     55  C   UNL     1     -48.673  30.694  25.842  1.00  0.00     0.021 A 
ATOM     56  C   UNL     1     -47.316  31.495  24.259  1.00  0.00     0.150 A 
ATOM     57  C   UNL     1     -48.339  29.638  25.022  1.00  0.00     0.033 A 
ATOM     58  H   UNL     1     -49.300  30.677  26.720  1.00  0.00     0.083 H 
ATOM     59  C   UNL     1     -47.513  30.140  23.985  1.00  0.00     0.071 A 
ATOM     60  N   UNL     1     -46.556  32.324  23.515  1.00  0.00    -0.218 NA
ATOM     61  C   UNL     1     -46.904  29.635  22.823  1.00  0.00     0.137 A 
ATOM     62  C   UNL     1     -46.001  31.724  22.457  1.00  0.00     0.120 A 
ATOM     63  N   UNL     1     -46.138  30.447  22.073  1.00  0.00    -0.219 NA
ATOM     64  H   UNL     1     -45.369  32.346  21.830  1.00  0.00     0.106 H 
BRANCH  57  65
ATOM     65  C   UNL     1     -48.783  28.261  25.217  1.00  0.00     0.095 A 
ATOM     66  C   UNL     1     -49.981  27.707  24.716  1.00  0.00    -0.016 A 
ATOM     67  N   UNL     1     -48.040  27.350  25.854  1.00  0.00    -0.173 NA
ATOM     68  C   UNL     1     -49.954  26.391  25.113  1.00  0.00     0.025 A 
ATOM     69  H   UNL     1     -50.754  28.197  24.140  1.00  0.00     0.066 H 
ATOM     70  N   UNL     1     -48.780  26.228  25.787  1.00  0.00    -0.275 N 
ATOM     71  H   UNL     1     -50.652  25.579  24.966  1.00  0.00     0.084 H 
BRANCH  70  72
ATOM     72  C   UNL     1     -48.285  25.014  26.391  1.00  0.00     0.030 C 
ATOM     73  H   UNL     1     -48.640  24.153  25.819  1.00  0.00     0.048 H 
ATOM     74  H   UNL     1     -48.660  24.962  27.416  1.00  0.00     0.048 H 
ATOM     75  H   UNL     1     -47.193  25.045  26.382  1.00  0.00     0.048 H 
ENDBRANCH  70  72
ENDBRANCH  57  65
BRANCH  61  76
ATOM     76  N   UNL     1     -47.062  28.339  22.343  1.00  0.00    -0.383 N 
ATOM     77  H   UNL     1     -46.963  28.341  21.334  1.00  0.00     0.158 HD
ATOM     78  H   UNL     1     -47.894  27.878  22.690  1.00  0.00     0.158 HD
ENDBRANCH  61  76
ENDBRANCH  50  54
ENDBRANCH  42  45
ENDBRANCH  39  42
ENDBRANCH   8  39
TORSDOF 15
ENDMDL
MODEL 7
REMARK VINA RESULT:      -7.9      2.219      3.434
REMARK SMILES CCc1cc(NCCN(C)C)c2c(F)cc(CCc3cncc(-n4cc(-c5ccn(C)n5)c5c(N)ncnc54)c3)cc2n1
REMARK SMILES IDX 3 1 4 2 5 3 12 4 13 5 14 6 15 7 16 8 41 9 42 10 43 11 2 15
REMARK SMILES IDX 1 18 6 22 7 24 8 27 9 30 10 31 11 35 17 39 18 42 19 45 20 46
REMARK SMILES IDX 40 47 21 48 23 50 22 52 24 54 25 55 39 56 26 57 33 59 38 60
REMARK SMILES IDX 34 61 37 62 36 63 27 65 28 66 32 67 29 68 30 70 31 72 35 76
REMARK H PARENT 4 12 15 13 41 14 2 16 2 17 1 19 1 20 1 21 6 23 7 25 7 26 8 28
REMARK H PARENT 8 29 10 32 10 33 10 34 11 36 11 37 11 38 17 40 17 41 18 43
REMARK H PARENT 18 44 20 49 40 51 22 53 25 58 37 64 28 69 29 71 31 73 31 74
REMARK H PARENT 31 75 35 77 35 78
REMARK Flexibility Score: inf
ROOT
ATOM      1  C   UNL     1     -51.093  31.229  22.623  1.00  0.00     0.043 A 
ATOM      2  C   UNL     1     -51.067  29.886  22.973  1.00  0.00    -0.017 A 
ATOM      3  C   UNL     1     -50.234  29.457  24.009  1.00  0.00     0.048 A 
ATOM      4  C   UNL     1     -49.495  30.438  24.728  1.00  0.00     0.059 A 
ATOM      5  C   UNL     1     -48.666  30.174  25.841  1.00  0.00     0.134 A 
ATOM      6  F   UNL     1     -48.543  28.920  26.312  1.00  0.00    -0.206 F 
ATOM      7  C   UNL     1     -47.948  31.171  26.496  1.00  0.00    -0.022 A 
ATOM      8  C   UNL     1     -48.037  32.486  26.054  1.00  0.00    -0.043 A 
ATOM      9  C   UNL     1     -48.861  32.763  24.954  1.00  0.00    -0.032 A 
ATOM     10  C   UNL     1     -49.584  31.777  24.292  1.00  0.00     0.076 A 
ATOM     11  N   UNL     1     -50.343  32.157  23.254  1.00  0.00    -0.253 NA
ATOM     12  H   UNL     1     -51.715  29.190  22.452  1.00  0.00     0.066 H 
ATOM     13  H   UNL     1     -47.328  30.899  27.345  1.00  0.00     0.066 H 
ATOM     14  H   UNL     1     -48.960  33.789  24.598  1.00  0.00     0.065 H 
ENDROOT
BRANCH   1  15
ATOM     15  C   UNL     1     -51.960  31.709  21.490  1.00  0.00    -0.013 C 
ATOM     16  H   UNL     1     -53.017  31.555  21.737  1.00  0.00     0.033 H 
ATOM     17  H   UNL     1     -51.823  32.789  21.364  1.00  0.00     0.033 H 
BRANCH  15  18
ATOM     18  C   UNL     1     -51.619  31.002  20.187  1.00  0.00    -0.060 C 
ATOM     19  H   UNL     1     -50.758  30.337  20.312  1.00  0.00     0.023 H 
ATOM     20  H   UNL     1     -51.374  31.735  19.411  1.00  0.00     0.023 H 
ATOM     21  H   UNL     1     -52.460  30.399  19.830  1.00  0.00     0.023 H 
ENDBRANCH  15  18
ENDBRANCH   1  15
BRANCH   3  22
ATOM     22  N   UNL     1     -50.226  28.097  24.404  1.00  0.00    -0.383 N 
ATOM     23  H   UNL     1     -49.815  28.020  25.342  1.00  0.00     0.160 HD
BRANCH  22  24
ATOM     24  C   UNL     1     -49.523  27.139  23.536  1.00  0.00     0.027 C 
ATOM     25  H   UNL     1     -50.186  26.666  22.804  1.00  0.00     0.050 H 
ATOM     26  H   UNL     1     -49.160  26.324  24.171  1.00  0.00     0.050 H 
BRANCH  24  27
ATOM     27  C   UNL     1     -48.326  27.803  22.814  1.00  0.00     0.015 C 
ATOM     28  H   UNL     1     -48.712  28.695  22.303  1.00  0.00     0.045 H 
ATOM     29  H   UNL     1     -47.956  27.127  22.032  1.00  0.00     0.045 H 
BRANCH  27  30
ATOM     30  N   UNL     1     -47.224  28.213  23.716  1.00  0.00    -0.308 NA
BRANCH  30  31
ATOM     31  C   UNL     1     -46.402  27.075  24.129  1.00  0.00    -0.014 C 
ATOM     32  H   UNL     1     -47.011  26.166  24.195  1.00  0.00     0.039 H 
ATOM     33  H   UNL     1     -45.621  26.861  23.393  1.00  0.00     0.039 H 
ATOM     34  H   UNL     1     -45.927  27.240  25.103  1.00  0.00     0.039 H 
ENDBRANCH  30  31
BRANCH  30  35
ATOM     35  C   UNL     1     -46.390  29.222  23.062  1.00  0.00    -0.014 C 
ATOM     36  H   UNL     1     -45.940  28.848  22.135  1.00  0.00     0.039 H 
ATOM     37  H   UNL     1     -46.979  30.116  22.826  1.00  0.00     0.039 H 
ATOM     38  H   UNL     1     -45.585  29.549  23.730  1.00  0.00     0.039 H 
ENDBRANCH  30  35
ENDBRANCH  27  30
ENDBRANCH  24  27
ENDBRANCH  22  24
ENDBRANCH   3  22
BRANCH   8  39
ATOM     39  C   UNL     1     -47.282  33.591  26.750  1.00  0.00    -0.024 C 
ATOM     40  H   UNL     1     -46.299  33.225  27.075  1.00  0.00     0.032 H 
ATOM     41  H   UNL     1     -47.821  33.844  27.672  1.00  0.00     0.032 H 
BRANCH  39  42
ATOM     42  C   UNL     1     -47.131  34.860  25.901  1.00  0.00    -0.022 C 
ATOM     43  H   UNL     1     -47.862  34.828  25.083  1.00  0.00     0.032 H 
ATOM     44  H   UNL     1     -46.146  34.884  25.417  1.00  0.00     0.032 H 
BRANCH  42  45
ATOM     45  C   UNL     1     -47.353  36.133  26.675  1.00  0.00    -0.027 A 
ATOM     46  C   UNL     1     -48.531  36.351  27.375  1.00  0.00     0.030 A 
ATOM     47  C   UNL     1     -46.386  37.148  26.698  1.00  0.00    -0.032 A 
ATOM     48  N   UNL     1     -48.786  37.471  28.081  1.00  0.00    -0.262 NA
ATOM     49  H   UNL     1     -49.330  35.615  27.389  1.00  0.00     0.084 H 
ATOM     50  C   UNL     1     -46.615  38.336  27.411  1.00  0.00     0.066 A 
ATOM     51  H   UNL     1     -45.473  36.982  26.138  1.00  0.00     0.065 H 
ATOM     52  C   UNL     1     -47.830  38.436  28.080  1.00  0.00     0.051 A 
ATOM     53  H   UNL     1     -48.119  39.296  28.672  1.00  0.00     0.086 H 
BRANCH  50  54
ATOM     54  N   UNL     1     -45.636  39.382  27.443  1.00  0.00    -0.299 N 
ATOM     55  C   UNL     1     -45.570  40.432  26.545  1.00  0.00     0.021 A 
ATOM     56  C   UNL     1     -44.585  39.557  28.350  1.00  0.00     0.150 A 
ATOM     57  C   UNL     1     -44.496  41.240  26.853  1.00  0.00     0.033 A 
ATOM     58  H   UNL     1     -46.266  40.538  25.726  1.00  0.00     0.083 H 
ATOM     59  C   UNL     1     -43.888  40.722  28.023  1.00  0.00     0.071 A 
ATOM     60  N   UNL     1     -44.289  38.753  29.390  1.00  0.00    -0.218 NA
ATOM     61  C   UNL     1     -42.834  41.089  28.880  1.00  0.00     0.137 A 
ATOM     62  C   UNL     1     -43.249  39.185  30.111  1.00  0.00     0.120 A 
ATOM     63  N   UNL     1     -42.522  40.295  29.919  1.00  0.00    -0.219 NA
ATOM     64  H   UNL     1     -42.962  38.566  30.956  1.00  0.00     0.106 H 
BRANCH  57  65
ATOM     65  C   UNL     1     -44.095  42.415  26.086  1.00  0.00     0.095 A 
ATOM     66  C   UNL     1     -44.365  43.755  26.439  1.00  0.00    -0.016 A 
ATOM     67  N   UNL     1     -43.353  42.331  24.976  1.00  0.00    -0.173 NA
ATOM     68  C   UNL     1     -43.769  44.506  25.453  1.00  0.00     0.025 A 
ATOM     69  H   UNL     1     -44.912  44.124  27.296  1.00  0.00     0.066 H 
ATOM     70  N   UNL     1     -43.180  43.613  24.607  1.00  0.00    -0.275 N 
ATOM     71  H   UNL     1     -43.709  45.574  25.297  1.00  0.00     0.084 H 
BRANCH  70  72
ATOM     72  C   UNL     1     -42.419  43.913  23.419  1.00  0.00     0.030 C 
ATOM     73  H   UNL     1     -42.206  42.985  22.881  1.00  0.00     0.048 H 
ATOM     74  H   UNL     1     -41.484  44.392  23.720  1.00  0.00     0.048 H 
ATOM     75  H   UNL     1     -43.010  44.583  22.790  1.00  0.00     0.048 H 
ENDBRANCH  70  72
ENDBRANCH  57  65
BRANCH  61  76
ATOM     76  N   UNL     1     -42.090  42.258  28.767  1.00  0.00    -0.383 N 
ATOM     77  H   UNL     1     -42.717  43.043  28.631  1.00  0.00     0.158 HD
ATOM     78  H   UNL     1     -41.334  42.193  28.096  1.00  0.00     0.158 HD
ENDBRANCH  61  76
ENDBRANCH  50  54
ENDBRANCH  42  45
ENDBRANCH  39  42
ENDBRANCH   8  39
TORSDOF 15
ENDMDL
