MODEL 1
REMARK VINA RESULT:      -9.6      0.000      0.000
REMARK SMILES CNc1ccc2ccc(OCc3cc(C#N)cc(-n4ccc5c(N)ncnc54)c3)cc2n1
REMARK SMILES IDX 11 1 10 4 9 5 3 6 4 7 32 8 5 9 31 11 6 12 30 14 7 15 8 17
REMARK SMILES IDX 2 20 1 22 12 26 13 27 29 28 14 29 18 31 17 33 15 35 16 36
REMARK SMILES IDX 19 37 20 38 28 39 21 40 22 42 27 43 23 45 26 46 25 47 24 49
REMARK H PARENT 11 2 11 3 4 10 5 13 30 16 7 18 8 19 2 21 1 23 1 24 1 25 13 30
REMARK H PARENT 29 32 17 34 20 41 21 44 26 48 24 50 24 51
REMARK Flexibility Score: inf
ROOT
ATOM      1  C   UNL     1     -46.285  34.564  27.233  1.00  0.00     0.113 C 
ATOM      2  H   UNL     1     -45.835  34.491  26.235  1.00  0.00     0.076 H 
ATOM      3  H   UNL     1     -45.488  34.309  27.940  1.00  0.00     0.076 H 
ENDROOT
BRANCH   1   4
ATOM      4  O   UNL     1     -47.339  33.599  27.279  1.00  0.00    -0.489 OA
BRANCH   4   5
ATOM      5  C   UNL     1     -47.607  32.858  26.162  1.00  0.00     0.122 A 
ATOM      6  C   UNL     1     -46.478  30.292  22.324  1.00  0.00     0.126 A 
ATOM      7  C   UNL     1     -47.812  30.064  22.011  1.00  0.00    -0.019 A 
ATOM      8  N   UNL     1     -46.102  31.009  23.399  1.00  0.00    -0.231 NA
ATOM      9  C   UNL     1     -48.797  30.611  22.826  1.00  0.00    -0.049 A 
ATOM     10  H   UNL     1     -48.085  29.452  21.160  1.00  0.00     0.066 H 
ATOM     11  C   UNL     1     -47.052  31.539  24.193  1.00  0.00     0.076 A 
ATOM     12  C   UNL     1     -48.427  31.367  23.941  1.00  0.00     0.001 A 
ATOM     13  H   UNL     1     -49.843  30.435  22.591  1.00  0.00     0.063 H 
ATOM     14  C   UNL     1     -46.669  32.284  25.302  1.00  0.00     0.007 A 
ATOM     15  C   UNL     1     -49.379  31.940  24.797  1.00  0.00    -0.049 A 
ATOM     16  H   UNL     1     -45.603  32.391  25.470  1.00  0.00     0.069 H 
ATOM     17  C   UNL     1     -48.965  32.681  25.901  1.00  0.00    -0.019 A 
ATOM     18  H   UNL     1     -50.443  31.810  24.613  1.00  0.00     0.063 H 
ATOM     19  H   UNL     1     -49.705  33.121  26.566  1.00  0.00     0.066 H 
BRANCH   6  20
ATOM     20  N   UNL     1     -45.437  29.761  21.562  1.00  0.00    -0.373 N 
ATOM     21  H   UNL     1     -45.911  29.321  20.773  1.00  0.00     0.161 HD
BRANCH  20  22
ATOM     22  C   UNL     1     -44.603  28.809  22.275  1.00  0.00     0.005 C 
ATOM     23  H   UNL     1     -43.959  28.246  21.590  1.00  0.00     0.045 H 
ATOM     24  H   UNL     1     -43.956  29.352  22.971  1.00  0.00     0.045 H 
ATOM     25  H   UNL     1     -45.203  28.110  22.867  1.00  0.00     0.045 H 
ENDBRANCH  20  22
ENDBRANCH   6  20
ENDBRANCH   4   5
ENDBRANCH   1   4
BRANCH   1  26
ATOM     26  C   UNL     1     -46.778  35.988  27.401  1.00  0.00    -0.007 A 
ATOM     27  C   UNL     1     -48.128  36.238  27.665  1.00  0.00    -0.038 A 
ATOM     28  C   UNL     1     -45.880  37.070  27.341  1.00  0.00    -0.031 A 
ATOM     29  C   UNL     1     -48.578  37.547  27.838  1.00  0.00     0.054 A 
ATOM     30  H   UNL     1     -48.834  35.410  27.729  1.00  0.00     0.064 H 
ATOM     31  C   UNL     1     -46.311  38.395  27.510  1.00  0.00     0.049 A 
ATOM     32  H   UNL     1     -44.834  36.832  27.167  1.00  0.00     0.065 H 
ATOM     33  C   UNL     1     -47.677  38.618  27.760  1.00  0.00    -0.020 A 
ATOM     34  H   UNL     1     -48.080  39.620  27.879  1.00  0.00     0.066 H 
BRANCH  29  35
ATOM     35  C   UNL     1     -49.967  37.799  28.098  1.00  0.00     0.099 C 
ATOM     36  N   UNL     1     -51.092  37.994  28.305  1.00  0.00    -0.192 NA
ENDBRANCH  29  35
BRANCH  31  37
ATOM     37  N   UNL     1     -45.393  39.501  27.437  1.00  0.00    -0.301 N 
ATOM     38  C   UNL     1     -45.393  40.470  26.439  1.00  0.00     0.012 A 
ATOM     39  C   UNL     1     -44.352  39.824  28.316  1.00  0.00     0.150 A 
ATOM     40  C   UNL     1     -44.390  41.380  26.676  1.00  0.00    -0.031 A 
ATOM     41  H   UNL     1     -46.119  40.468  25.642  1.00  0.00     0.082 H 
ATOM     42  C   UNL     1     -43.723  40.978  27.855  1.00  0.00     0.061 A 
ATOM     43  N   UNL     1     -43.980  39.144  29.420  1.00  0.00    -0.218 NA
ATOM     44  H   UNL     1     -44.168  42.247  26.068  1.00  0.00     0.065 H 
ATOM     45  C   UNL     1     -42.640  41.466  28.602  1.00  0.00     0.136 A 
ATOM     46  C   UNL     1     -42.937  39.701  30.051  1.00  0.00     0.120 A 
ATOM     47  N   UNL     1     -42.256  40.806  29.708  1.00  0.00    -0.219 NA
ATOM     48  H   UNL     1     -42.600  39.196  30.950  1.00  0.00     0.106 H 
BRANCH  45  49
ATOM     49  N   UNL     1     -41.915  42.597  28.256  1.00  0.00    -0.383 N 
ATOM     50  H   UNL     1     -41.598  42.534  27.295  1.00  0.00     0.158 HD
ATOM     51  H   UNL     1     -42.336  43.474  28.531  1.00  0.00     0.158 HD
ENDBRANCH  45  49
ENDBRANCH  31  37
ENDBRANCH   1  26
TORSDOF 8
ENDMDL
MODEL 2
REMARK VINA RESULT:      -9.6      2.154     10.198
REMARK SMILES CNc1ccc2ccc(OCc3cc(C#N)cc(-n4ccc5c(N)ncnc54)c3)cc2n1
REMARK SMILES IDX 11 1 10 4 9 5 3 6 4 7 32 8 5 9 31 11 6 12 30 14 7 15 8 17
REMARK SMILES IDX 2 20 1 22 12 26 13 27 29 28 14 29 18 31 17 33 15 35 16 36
REMARK SMILES IDX 19 37 20 38 28 39 21 40 22 42 27 43 23 45 26 46 25 47 24 49
REMARK H PARENT 11 2 11 3 4 10 5 13 30 16 7 18 8 19 2 21 1 23 1 24 1 25 13 30
REMARK H PARENT 29 32 17 34 20 41 21 44 26 48 24 50 24 51
REMARK Flexibility Score: inf
ROOT
ATOM      1  C   UNL     1     -46.498  36.566  26.733  1.00  0.00     0.113 C 
ATOM      2  H   UNL     1     -45.513  36.821  26.324  1.00  0.00     0.076 H 
ATOM      3  H   UNL     1     -47.230  36.997  26.041  1.00  0.00     0.076 H 
ENDROOT
BRANCH   1   4
ATOM      4  O   UNL     1     -46.581  37.187  28.019  1.00  0.00    -0.489 OA
BRANCH   4   5
ATOM      5  C   UNL     1     -45.568  38.013  28.421  1.00  0.00     0.122 A 
ATOM      6  C   UNL     1     -42.616  41.717  28.027  1.00  0.00     0.126 A 
ATOM      7  C   UNL     1     -42.013  41.442  29.246  1.00  0.00    -0.019 A 
ATOM      8  N   UNL     1     -43.621  40.969  27.534  1.00  0.00    -0.231 NA
ATOM      9  C   UNL     1     -42.448  40.343  29.979  1.00  0.00    -0.049 A 
ATOM     10  H   UNL     1     -41.231  42.082  29.635  1.00  0.00     0.066 H 
ATOM     11  C   UNL     1     -44.048  39.905  28.240  1.00  0.00     0.076 A 
ATOM     12  C   UNL     1     -43.483  39.548  29.480  1.00  0.00     0.001 A 
ATOM     13  H   UNL     1     -41.983  40.122  30.936  1.00  0.00     0.063 H 
ATOM     14  C   UNL     1     -45.083  39.127  27.735  1.00  0.00     0.007 A 
ATOM     15  C   UNL     1     -43.961  38.430  30.179  1.00  0.00    -0.049 A 
ATOM     16  H   UNL     1     -45.498  39.434  26.782  1.00  0.00     0.069 H 
ATOM     17  C   UNL     1     -44.999  37.669  29.646  1.00  0.00    -0.019 A 
ATOM     18  H   UNL     1     -43.533  38.148  31.138  1.00  0.00     0.063 H 
ATOM     19  H   UNL     1     -45.371  36.805  30.192  1.00  0.00     0.066 H 
BRANCH   6  20
ATOM     20  N   UNL     1     -42.245  42.811  27.245  1.00  0.00    -0.373 N 
ATOM     21  H   UNL     1     -42.398  43.612  27.858  1.00  0.00     0.161 HD
BRANCH  20  22
ATOM     22  C   UNL     1     -42.995  42.941  26.007  1.00  0.00     0.005 C 
ATOM     23  H   UNL     1     -43.186  43.992  25.762  1.00  0.00     0.045 H 
ATOM     24  H   UNL     1     -42.411  42.509  25.189  1.00  0.00     0.045 H 
ATOM     25  H   UNL     1     -43.945  42.399  26.051  1.00  0.00     0.045 H 
ENDBRANCH  20  22
ENDBRANCH   6  20
ENDBRANCH   4   5
ENDBRANCH   1   4
BRANCH   1  26
ATOM     26  C   UNL     1     -46.580  35.054  26.800  1.00  0.00    -0.007 A 
ATOM     27  C   UNL     1     -46.094  34.373  27.920  1.00  0.00    -0.038 A 
ATOM     28  C   UNL     1     -47.185  34.321  25.761  1.00  0.00    -0.031 A 
ATOM     29  C   UNL     1     -46.186  32.982  27.989  1.00  0.00     0.054 A 
ATOM     30  H   UNL     1     -45.635  34.926  28.739  1.00  0.00     0.064 H 
ATOM     31  C   UNL     1     -47.286  32.923  25.810  1.00  0.00     0.049 A 
ATOM     32  H   UNL     1     -47.580  34.890  24.924  1.00  0.00     0.065 H 
ATOM     33  C   UNL     1     -46.777  32.262  26.941  1.00  0.00    -0.020 A 
ATOM     34  H   UNL     1     -46.804  31.179  27.032  1.00  0.00     0.066 H 
BRANCH  29  35
ATOM     35  C   UNL     1     -45.676  32.287  29.137  1.00  0.00     0.099 C 
ATOM     36  N   UNL     1     -45.258  31.720  30.059  1.00  0.00    -0.192 NA
ENDBRANCH  29  35
BRANCH  31  37
ATOM     37  N   UNL     1     -47.896  32.174  24.741  1.00  0.00    -0.301 N 
ATOM     38  C   UNL     1     -49.266  32.042  24.545  1.00  0.00     0.012 A 
ATOM     39  C   UNL     1     -47.268  31.454  23.718  1.00  0.00     0.150 A 
ATOM     40  C   UNL     1     -49.502  31.267  23.434  1.00  0.00    -0.031 A 
ATOM     41  H   UNL     1     -49.985  32.525  25.188  1.00  0.00     0.082 H 
ATOM     42  C   UNL     1     -48.248  30.886  22.908  1.00  0.00     0.061 A 
ATOM     43  N   UNL     1     -45.941  31.298  23.530  1.00  0.00    -0.218 NA
ATOM     44  H   UNL     1     -50.477  31.011  23.039  1.00  0.00     0.065 H 
ATOM     45  C   UNL     1     -47.817  30.114  21.819  1.00  0.00     0.136 A 
ATOM     46  C   UNL     1     -45.649  30.542  22.463  1.00  0.00     0.120 A 
ATOM     47  N   UNL     1     -46.501  29.949  21.611  1.00  0.00    -0.219 NA
ATOM     48  H   UNL     1     -44.594  30.389  22.263  1.00  0.00     0.106 H 
BRANCH  45  49
ATOM     49  N   UNL     1     -48.682  29.481  20.936  1.00  0.00    -0.383 N 
ATOM     50  H   UNL     1     -49.435  29.029  21.442  1.00  0.00     0.158 HD
ATOM     51  H   UNL     1     -48.950  30.033  20.133  1.00  0.00     0.158 HD
ENDBRANCH  45  49
ENDBRANCH  31  37
ENDBRANCH   1  26
TORSDOF 8
ENDMDL
MODEL 3
REMARK VINA RESULT:      -9.5      1.585      2.038
REMARK SMILES CNc1ccc2ccc(OCc3cc(C#N)cc(-n4ccc5c(N)ncnc54)c3)cc2n1
REMARK SMILES IDX 11 1 10 4 9 5 3 6 4 7 32 8 5 9 31 11 6 12 30 14 7 15 8 17
REMARK SMILES IDX 2 20 1 22 12 26 13 27 29 28 14 29 18 31 17 33 15 35 16 36
REMARK SMILES IDX 19 37 20 38 28 39 21 40 22 42 27 43 23 45 26 46 25 47 24 49
REMARK H PARENT 11 2 11 3 4 10 5 13 30 16 7 18 8 19 2 21 1 23 1 24 1 25 13 30
REMARK H PARENT 29 32 17 34 20 41 21 44 26 48 24 50 24 51
REMARK Flexibility Score: inf
ROOT
ATOM      1  C   UNL     1     -46.740  34.359  27.060  1.00  0.00     0.113 C 
ATOM      2  H   UNL     1     -46.104  34.350  26.166  1.00  0.00     0.076 H 
ATOM      3  H   UNL     1     -46.124  33.950  27.869  1.00  0.00     0.076 H 
ENDROOT
BRANCH   1   4
ATOM      4  O   UNL     1     -47.852  33.505  26.781  1.00  0.00    -0.489 OA
BRANCH   4   5
ATOM      5  C   UNL     1     -47.691  32.477  25.894  1.00  0.00     0.122 A 
ATOM      6  C   UNL     1     -48.550  28.158  24.106  1.00  0.00     0.126 A 
ATOM      7  C   UNL     1     -47.657  28.349  23.060  1.00  0.00    -0.019 A 
ATOM      8  N   UNL     1     -48.784  29.103  25.036  1.00  0.00    -0.231 NA
ATOM      9  C   UNL     1     -46.963  29.551  22.978  1.00  0.00    -0.049 A 
ATOM     10  H   UNL     1     -47.516  27.585  22.305  1.00  0.00     0.066 H 
ATOM     11  C   UNL     1     -48.117  30.270  24.960  1.00  0.00     0.076 A 
ATOM     12  C   UNL     1     -47.184  30.541  23.940  1.00  0.00     0.001 A 
ATOM     13  H   UNL     1     -46.265  29.710  22.161  1.00  0.00     0.063 H 
ATOM     14  C   UNL     1     -48.352  31.247  25.920  1.00  0.00     0.007 A 
ATOM     15  C   UNL     1     -46.513  31.772  23.904  1.00  0.00    -0.049 A 
ATOM     16  H   UNL     1     -49.079  31.009  26.687  1.00  0.00     0.069 H 
ATOM     17  C   UNL     1     -46.769  32.732  24.880  1.00  0.00    -0.019 A 
ATOM     18  H   UNL     1     -45.794  31.991  23.118  1.00  0.00     0.063 H 
ATOM     19  H   UNL     1     -46.251  33.688  24.847  1.00  0.00     0.066 H 
BRANCH   6  20
ATOM     20  N   UNL     1     -49.293  26.985  24.243  1.00  0.00    -0.373 N 
ATOM     21  H   UNL     1     -48.696  26.269  23.826  1.00  0.00     0.161 HD
BRANCH  20  22
ATOM     22  C   UNL     1     -50.596  27.027  23.601  1.00  0.00     0.005 C 
ATOM     23  H   UNL     1     -51.110  27.975  23.796  1.00  0.00     0.045 H 
ATOM     24  H   UNL     1     -50.463  26.936  22.518  1.00  0.00     0.045 H 
ATOM     25  H   UNL     1     -51.232  26.196  23.922  1.00  0.00     0.045 H 
ENDBRANCH  20  22
ENDBRANCH   6  20
ENDBRANCH   4   5
ENDBRANCH   1   4
BRANCH   1  26
ATOM     26  C   UNL     1     -47.146  35.798  27.309  1.00  0.00    -0.007 A 
ATOM     27  C   UNL     1     -48.470  36.109  27.634  1.00  0.00    -0.038 A 
ATOM     28  C   UNL     1     -46.191  36.832  27.262  1.00  0.00    -0.031 A 
ATOM     29  C   UNL     1     -48.840  37.431  27.881  1.00  0.00     0.054 A 
ATOM     30  H   UNL     1     -49.218  35.319  27.689  1.00  0.00     0.064 H 
ATOM     31  C   UNL     1     -46.542  38.169  27.504  1.00  0.00     0.049 A 
ATOM     32  H   UNL     1     -45.167  36.545  27.038  1.00  0.00     0.065 H 
ATOM     33  C   UNL     1     -47.883  38.455  27.815  1.00  0.00    -0.020 A 
ATOM     34  H   UNL     1     -48.225  39.471  27.994  1.00  0.00     0.066 H 
BRANCH  29  35
ATOM     35  C   UNL     1     -50.202  37.746  28.204  1.00  0.00     0.099 C 
ATOM     36  N   UNL     1     -51.302  37.998  28.475  1.00  0.00    -0.192 NA
ENDBRANCH  29  35
BRANCH  31  37
ATOM     37  N   UNL     1     -45.566  39.226  27.445  1.00  0.00    -0.301 N 
ATOM     38  C   UNL     1     -45.481  40.173  26.430  1.00  0.00     0.012 A 
ATOM     39  C   UNL     1     -44.543  39.515  28.355  1.00  0.00     0.150 A 
ATOM     40  C   UNL     1     -44.442  41.036  26.687  1.00  0.00    -0.031 A 
ATOM     41  H   UNL     1     -46.177  40.191  25.606  1.00  0.00     0.082 H 
ATOM     42  C   UNL     1     -43.839  40.626  27.897  1.00  0.00     0.061 A 
ATOM     43  N   UNL     1     -44.246  38.839  29.485  1.00  0.00    -0.218 NA
ATOM     44  H   UNL     1     -44.154  41.878  26.071  1.00  0.00     0.065 H 
ATOM     45  C   UNL     1     -42.761  41.073  28.674  1.00  0.00     0.136 A 
ATOM     46  C   UNL     1     -43.199  39.356  30.143  1.00  0.00     0.120 A 
ATOM     47  N   UNL     1     -42.450  40.419  29.805  1.00  0.00    -0.219 NA
ATOM     48  H   UNL     1     -42.921  38.853  31.064  1.00  0.00     0.106 H 
BRANCH  45  49
ATOM     49  N   UNL     1     -41.967  42.160  28.334  1.00  0.00    -0.383 N 
ATOM     50  H   UNL     1     -42.017  42.874  29.052  1.00  0.00     0.158 HD
ATOM     51  H   UNL     1     -41.043  41.925  28.000  1.00  0.00     0.158 HD
ENDBRANCH  45  49
ENDBRANCH  31  37
ENDBRANCH   1  26
TORSDOF 8
ENDMDL
MODEL 4
REMARK VINA RESULT:      -9.1      2.852      4.967
REMARK SMILES CNc1ccc2ccc(OCc3cc(C#N)cc(-n4ccc5c(N)ncnc54)c3)cc2n1
REMARK SMILES IDX 11 1 10 4 9 5 3 6 4 7 32 8 5 9 31 11 6 12 30 14 7 15 8 17
REMARK SMILES IDX 2 20 1 22 12 26 13 27 29 28 14 29 18 31 17 33 15 35 16 36
REMARK SMILES IDX 19 37 20 38 28 39 21 40 22 42 27 43 23 45 26 46 25 47 24 49
REMARK H PARENT 11 2 11 3 4 10 5 13 30 16 7 18 8 19 2 21 1 23 1 24 1 25 13 30
REMARK H PARENT 29 32 17 34 20 41 21 44 26 48 24 50 24 51
REMARK Flexibility Score: inf
ROOT
ATOM      1  C   UNL     1     -46.402  38.191  27.581  1.00  0.00     0.113 C 
ATOM      2  H   UNL     1     -46.896  38.187  28.560  1.00  0.00     0.076 H 
ATOM      3  H   UNL     1     -47.203  38.312  26.843  1.00  0.00     0.076 H 
ENDROOT
BRANCH   1   4
ATOM      4  O   UNL     1     -45.762  36.921  27.439  1.00  0.00    -0.489 OA
BRANCH   4   5
ATOM      5  C   UNL     1     -46.491  35.860  26.975  1.00  0.00     0.122 A 
ATOM      6  C   UNL     1     -47.112  31.705  24.754  1.00  0.00     0.126 A 
ATOM      7  C   UNL     1     -48.473  31.696  25.025  1.00  0.00    -0.019 A 
ATOM      8  N   UNL     1     -46.301  32.700  25.162  1.00  0.00    -0.231 NA
ATOM      9  C   UNL     1     -49.026  32.761  25.727  1.00  0.00    -0.049 A 
ATOM     10  H   UNL     1     -49.095  30.865  24.716  1.00  0.00     0.066 H 
ATOM     11  C   UNL     1     -46.831  33.732  25.844  1.00  0.00     0.076 A 
ATOM     12  C   UNL     1     -48.204  33.809  26.151  1.00  0.00     0.001 A 
ATOM     13  H   UNL     1     -50.090  32.761  25.946  1.00  0.00     0.063 H 
ATOM     14  C   UNL     1     -46.000  34.764  26.264  1.00  0.00     0.007 A 
ATOM     15  C   UNL     1     -48.709  34.906  26.863  1.00  0.00    -0.049 A 
ATOM     16  H   UNL     1     -44.949  34.670  26.017  1.00  0.00     0.069 H 
ATOM     17  C   UNL     1     -47.851  35.925  27.271  1.00  0.00    -0.019 A 
ATOM     18  H   UNL     1     -49.767  34.972  27.107  1.00  0.00     0.063 H 
ATOM     19  H   UNL     1     -48.245  36.772  27.827  1.00  0.00     0.066 H 
BRANCH   6  20
ATOM     20  N   UNL     1     -46.485  30.663  24.070  1.00  0.00    -0.373 N 
ATOM     21  H   UNL     1     -46.098  31.115  23.240  1.00  0.00     0.161 HD
BRANCH  20  22
ATOM     22  C   UNL     1     -47.370  29.568  23.711  1.00  0.00     0.005 C 
ATOM     23  H   UNL     1     -48.376  29.713  24.121  1.00  0.00     0.045 H 
ATOM     24  H   UNL     1     -47.457  29.523  22.621  1.00  0.00     0.045 H 
ATOM     25  H   UNL     1     -46.976  28.603  24.047  1.00  0.00     0.045 H 
ENDBRANCH  20  22
ENDBRANCH   6  20
ENDBRANCH   4   5
ENDBRANCH   1   4
BRANCH   1  26
ATOM     26  C   UNL     1     -45.425  39.350  27.574  1.00  0.00    -0.007 A 
ATOM     27  C   UNL     1     -44.424  39.432  28.548  1.00  0.00    -0.038 A 
ATOM     28  C   UNL     1     -45.482  40.331  26.566  1.00  0.00    -0.031 A 
ATOM     29  C   UNL     1     -43.514  40.489  28.530  1.00  0.00     0.054 A 
ATOM     30  H   UNL     1     -44.357  38.673  29.326  1.00  0.00     0.064 H 
ATOM     31  C   UNL     1     -44.577  41.403  26.531  1.00  0.00     0.049 A 
ATOM     32  H   UNL     1     -46.253  40.214  25.809  1.00  0.00     0.065 H 
ATOM     33  C   UNL     1     -43.590  41.469  27.530  1.00  0.00    -0.020 A 
ATOM     34  H   UNL     1     -42.872  42.283  27.573  1.00  0.00     0.066 H 
BRANCH  29  35
ATOM     35  C   UNL     1     -42.495  40.573  29.537  1.00  0.00     0.099 C 
ATOM     36  N   UNL     1     -41.667  40.647  30.347  1.00  0.00    -0.192 NA
ENDBRANCH  29  35
BRANCH  31  37
ATOM     37  N   UNL     1     -44.644  42.412  25.505  1.00  0.00    -0.301 N 
ATOM     38  C   UNL     1     -43.946  42.369  24.302  1.00  0.00     0.012 A 
ATOM     39  C   UNL     1     -45.392  43.594  25.498  1.00  0.00     0.150 A 
ATOM     40  C   UNL     1     -44.242  43.485  23.556  1.00  0.00    -0.031 A 
ATOM     41  H   UNL     1     -43.306  41.541  24.042  1.00  0.00     0.082 H 
ATOM     42  C   UNL     1     -45.149  44.268  24.303  1.00  0.00     0.061 A 
ATOM     43  N   UNL     1     -46.205  44.048  26.476  1.00  0.00    -0.218 NA
ATOM     44  H   UNL     1     -43.852  43.707  22.570  1.00  0.00     0.065 H 
ATOM     45  C   UNL     1     -45.808  45.491  24.106  1.00  0.00     0.136 A 
ATOM     46  C   UNL     1     -46.777  45.222  26.177  1.00  0.00     0.120 A 
ATOM     47  N   UNL     1     -46.625  45.958  25.064  1.00  0.00    -0.219 NA
ATOM     48  H   UNL     1     -47.446  45.629  26.928  1.00  0.00     0.106 H 
BRANCH  45  49
ATOM     49  N   UNL     1     -45.653  46.272  22.970  1.00  0.00    -0.383 N 
ATOM     50  H   UNL     1     -45.937  47.228  23.155  1.00  0.00     0.158 HD
ATOM     51  H   UNL     1     -44.773  46.152  22.487  1.00  0.00     0.158 HD
ENDBRANCH  45  49
ENDBRANCH  31  37
ENDBRANCH   1  26
TORSDOF 8
ENDMDL
MODEL 5
REMARK VINA RESULT:      -9.0      1.691      2.592
REMARK SMILES CNc1ccc2ccc(OCc3cc(C#N)cc(-n4ccc5c(N)ncnc54)c3)cc2n1
REMARK SMILES IDX 11 1 10 4 9 5 3 6 4 7 32 8 5 9 31 11 6 12 30 14 7 15 8 17
REMARK SMILES IDX 2 20 1 22 12 26 13 27 29 28 14 29 18 31 17 33 15 35 16 36
REMARK SMILES IDX 19 37 20 38 28 39 21 40 22 42 27 43 23 45 26 46 25 47 24 49
REMARK H PARENT 11 2 11 3 4 10 5 13 30 16 7 18 8 19 2 21 1 23 1 24 1 25 13 30
REMARK H PARENT 29 32 17 34 20 41 21 44 26 48 24 50 24 51
REMARK Flexibility Score: inf
ROOT
ATOM      1  C   UNL     1     -46.121  35.783  28.176  1.00  0.00     0.113 C 
ATOM      2  H   UNL     1     -45.281  35.643  28.868  1.00  0.00     0.076 H 
ATOM      3  H   UNL     1     -46.968  35.253  28.625  1.00  0.00     0.076 H 
ENDROOT
BRANCH   1   4
ATOM      4  O   UNL     1     -45.737  35.180  26.938  1.00  0.00    -0.489 OA
BRANCH   4   5
ATOM      5  C   UNL     1     -46.558  34.243  26.375  1.00  0.00     0.122 A 
ATOM      6  C   UNL     1     -47.554  30.408  23.751  1.00  0.00     0.126 A 
ATOM      7  C   UNL     1     -48.911  30.497  24.029  1.00  0.00    -0.019 A 
ATOM      8  N   UNL     1     -46.656  31.278  24.251  1.00  0.00    -0.231 NA
ATOM      9  C   UNL     1     -49.365  31.532  24.839  1.00  0.00    -0.049 A 
ATOM     10  H   UNL     1     -49.606  29.761  23.642  1.00  0.00     0.066 H 
ATOM     11  C   UNL     1     -47.090  32.280  25.038  1.00  0.00     0.076 A 
ATOM     12  C   UNL     1     -48.451  32.451  25.360  1.00  0.00     0.001 A 
ATOM     13  H   UNL     1     -50.425  31.607  25.064  1.00  0.00     0.063 H 
ATOM     14  C   UNL     1     -46.169  33.183  25.554  1.00  0.00     0.007 A 
ATOM     15  C   UNL     1     -48.855  33.513  26.182  1.00  0.00    -0.049 A 
ATOM     16  H   UNL     1     -45.130  33.019  25.292  1.00  0.00     0.069 H 
ATOM     17  C   UNL     1     -47.908  34.402  26.685  1.00  0.00    -0.019 A 
ATOM     18  H   UNL     1     -49.903  33.651  26.439  1.00  0.00     0.063 H 
ATOM     19  H   UNL     1     -48.223  35.222  27.327  1.00  0.00     0.066 H 
BRANCH   6  20
ATOM     20  N   UNL     1     -47.023  29.387  22.961  1.00  0.00    -0.373 N 
ATOM     21  H   UNL     1     -47.411  29.570  22.034  1.00  0.00     0.161 HD
BRANCH  20  22
ATOM     22  C   UNL     1     -47.354  28.048  23.417  1.00  0.00     0.005 C 
ATOM     23  H   UNL     1     -48.170  28.062  24.148  1.00  0.00     0.045 H 
ATOM     24  H   UNL     1     -47.682  27.451  22.561  1.00  0.00     0.045 H 
ATOM     25  H   UNL     1     -46.485  27.543  23.852  1.00  0.00     0.045 H 
ENDBRANCH  20  22
ENDBRANCH   6  20
ENDBRANCH   4   5
ENDBRANCH   1   4
BRANCH   1  26
ATOM     26  C   UNL     1     -46.363  37.275  28.059  1.00  0.00    -0.007 A 
ATOM     27  C   UNL     1     -47.658  37.788  28.179  1.00  0.00    -0.038 A 
ATOM     28  C   UNL     1     -45.288  38.164  27.873  1.00  0.00    -0.031 A 
ATOM     29  C   UNL     1     -47.879  39.163  28.089  1.00  0.00     0.054 A 
ATOM     30  H   UNL     1     -48.500  37.115  28.338  1.00  0.00     0.064 H 
ATOM     31  C   UNL     1     -45.487  39.550  27.778  1.00  0.00     0.049 A 
ATOM     32  H   UNL     1     -44.294  37.729  27.817  1.00  0.00     0.065 H 
ATOM     33  C   UNL     1     -46.801  40.038  27.888  1.00  0.00    -0.020 A 
ATOM     34  H   UNL     1     -47.027  41.097  27.803  1.00  0.00     0.066 H 
BRANCH  29  35
ATOM     35  C   UNL     1     -49.211  39.684  28.204  1.00  0.00     0.099 C 
ATOM     36  N   UNL     1     -50.285  40.113  28.300  1.00  0.00    -0.192 NA
ENDBRANCH  29  35
BRANCH  31  37
ATOM     37  N   UNL     1     -44.387  40.457  27.577  1.00  0.00    -0.301 N 
ATOM     38  C   UNL     1     -43.321  40.620  28.455  1.00  0.00     0.012 A 
ATOM     39  C   UNL     1     -44.166  41.327  26.503  1.00  0.00     0.150 A 
ATOM     40  C   UNL     1     -42.450  41.560  27.956  1.00  0.00    -0.031 A 
ATOM     41  H   UNL     1     -43.235  40.043  29.362  1.00  0.00     0.082 H 
ATOM     42  C   UNL     1     -42.976  42.017  26.727  1.00  0.00     0.061 A 
ATOM     43  N   UNL     1     -44.959  41.510  25.427  1.00  0.00    -0.218 NA
ATOM     44  H   UNL     1     -41.527  41.876  28.425  1.00  0.00     0.065 H 
ATOM     45  C   UNL     1     -42.578  42.950  25.758  1.00  0.00     0.136 A 
ATOM     46  C   UNL     1     -44.479  42.423  24.572  1.00  0.00     0.120 A 
ATOM     47  N   UNL     1     -43.351  43.143  24.677  1.00  0.00    -0.219 NA
ATOM     48  H   UNL     1     -45.077  42.604  23.684  1.00  0.00     0.106 H 
BRANCH  45  49
ATOM     49  N   UNL     1     -41.423  43.713  25.856  1.00  0.00    -0.383 N 
ATOM     50  H   UNL     1     -41.382  44.178  26.757  1.00  0.00     0.158 HD
ATOM     51  H   UNL     1     -40.579  43.249  25.553  1.00  0.00     0.158 HD
ENDBRANCH  45  49
ENDBRANCH  31  37
ENDBRANCH   1  26
TORSDOF 8
ENDMDL
MODEL 6
REMARK VINA RESULT:      -8.9      1.833      2.463
REMARK SMILES CNc1ccc2ccc(OCc3cc(C#N)cc(-n4ccc5c(N)ncnc54)c3)cc2n1
REMARK SMILES IDX 11 1 10 4 9 5 3 6 4 7 32 8 5 9 31 11 6 12 30 14 7 15 8 17
REMARK SMILES IDX 2 20 1 22 12 26 13 27 29 28 14 29 18 31 17 33 15 35 16 36
REMARK SMILES IDX 19 37 20 38 28 39 21 40 22 42 27 43 23 45 26 46 25 47 24 49
REMARK H PARENT 11 2 11 3 4 10 5 13 30 16 7 18 8 19 2 21 1 23 1 24 1 25 13 30
REMARK H PARENT 29 32 17 34 20 41 21 44 26 48 24 50 24 51
REMARK Flexibility Score: inf
ROOT
ATOM      1  C   UNL     1     -47.844  37.106  27.790  1.00  0.00     0.113 C 
ATOM      2  H   UNL     1     -47.517  36.924  28.821  1.00  0.00     0.076 H 
ATOM      3  H   UNL     1     -48.837  36.650  27.706  1.00  0.00     0.076 H 
ENDROOT
BRANCH   1   4
ATOM      4  O   UNL     1     -46.904  36.444  26.940  1.00  0.00    -0.489 OA
BRANCH   4   5
ATOM      5  C   UNL     1     -47.228  35.222  26.419  1.00  0.00     0.122 A 
ATOM      6  C   UNL     1     -46.445  31.270  23.896  1.00  0.00     0.126 A 
ATOM      7  C   UNL     1     -47.693  30.751  24.213  1.00  0.00    -0.019 A 
ATOM      8  N   UNL     1     -46.024  32.465  24.354  1.00  0.00    -0.231 NA
ATOM      9  C   UNL     1     -48.548  31.496  25.016  1.00  0.00    -0.049 A 
ATOM     10  H   UNL     1     -47.991  29.771  23.860  1.00  0.00     0.066 H 
ATOM     11  C   UNL     1     -46.847  33.190  25.134  1.00  0.00     0.076 A 
ATOM     12  C   UNL     1     -48.134  32.743  25.493  1.00  0.00     0.001 A 
ATOM     13  H   UNL     1     -49.525  31.095  25.271  1.00  0.00     0.063 H 
ATOM     14  C   UNL     1     -46.420  34.425  25.606  1.00  0.00     0.007 A 
ATOM     15  C   UNL     1     -48.957  33.535  26.307  1.00  0.00    -0.049 A 
ATOM     16  H   UNL     1     -45.422  34.735  25.316  1.00  0.00     0.069 H 
ATOM     17  C   UNL     1     -48.500  34.769  26.765  1.00  0.00    -0.019 A 
ATOM     18  H   UNL     1     -49.950  33.197  26.592  1.00  0.00     0.063 H 
ATOM     19  H   UNL     1     -49.138  35.379  27.400  1.00  0.00     0.066 H 
BRANCH   6  20
ATOM     20  N   UNL     1     -45.528  30.572  23.110  1.00  0.00    -0.373 N 
ATOM     21  H   UNL     1     -45.345  31.205  22.330  1.00  0.00     0.161 HD
BRANCH  20  22
ATOM     22  C   UNL     1     -46.004  29.281  22.643  1.00  0.00     0.005 C 
ATOM     23  H   UNL     1     -45.493  28.972  21.725  1.00  0.00     0.045 H 
ATOM     24  H   UNL     1     -45.799  28.527  23.409  1.00  0.00     0.045 H 
ATOM     25  H   UNL     1     -47.086  29.287  22.473  1.00  0.00     0.045 H 
ENDBRANCH  20  22
ENDBRANCH   6  20
ENDBRANCH   4   5
ENDBRANCH   1   4
BRANCH   1  26
ATOM     26  C   UNL     1     -47.872  38.607  27.585  1.00  0.00    -0.007 A 
ATOM     27  C   UNL     1     -49.024  39.337  27.897  1.00  0.00    -0.038 A 
ATOM     28  C   UNL     1     -46.731  39.291  27.123  1.00  0.00    -0.031 A 
ATOM     29  C   UNL     1     -49.044  40.722  27.725  1.00  0.00     0.054 A 
ATOM     30  H   UNL     1     -49.911  38.826  28.268  1.00  0.00     0.064 H 
ATOM     31  C   UNL     1     -46.731  40.682  26.942  1.00  0.00     0.049 A 
ATOM     32  H   UNL     1     -45.847  38.692  26.924  1.00  0.00     0.065 H 
ATOM     33  C   UNL     1     -47.906  41.390  27.250  1.00  0.00    -0.020 A 
ATOM     34  H   UNL     1     -47.979  42.465  27.112  1.00  0.00     0.066 H 
BRANCH  29  35
ATOM     35  C   UNL     1     -50.231  41.465  28.037  1.00  0.00     0.099 C 
ATOM     36  N   UNL     1     -51.196  42.058  28.290  1.00  0.00    -0.192 NA
ENDBRANCH  29  35
BRANCH  31  37
ATOM     37  N   UNL     1     -45.566  41.378  26.460  1.00  0.00    -0.301 N 
ATOM     38  C   UNL     1     -45.523  42.149  25.303  1.00  0.00     0.012 A 
ATOM     39  C   UNL     1     -44.288  41.427  27.028  1.00  0.00     0.150 A 
ATOM     40  C   UNL     1     -44.262  42.672  25.142  1.00  0.00    -0.031 A 
ATOM     41  H   UNL     1     -46.393  42.298  24.684  1.00  0.00     0.082 H 
ATOM     42  C   UNL     1     -43.472  42.218  26.222  1.00  0.00     0.061 A 
ATOM     43  N   UNL     1     -43.874  40.808  28.153  1.00  0.00    -0.218 NA
ATOM     44  H   UNL     1     -43.946  43.321  24.335  1.00  0.00     0.065 H 
ATOM     45  C   UNL     1     -42.138  42.388  26.622  1.00  0.00     0.136 A 
ATOM     46  C   UNL     1     -42.585  41.041  28.434  1.00  0.00     0.120 A 
ATOM     47  N   UNL     1     -41.706  41.784  27.741  1.00  0.00    -0.219 NA
ATOM     48  H   UNL     1     -42.201  40.570  29.334  1.00  0.00     0.106 H 
BRANCH  45  49
ATOM     49  N   UNL     1     -41.214  43.140  25.911  1.00  0.00    -0.383 N 
ATOM     50  H   UNL     1     -41.669  43.637  25.153  1.00  0.00     0.158 HD
ATOM     51  H   UNL     1     -40.575  43.678  26.479  1.00  0.00     0.158 HD
ENDBRANCH  45  49
ENDBRANCH  31  37
ENDBRANCH   1  26
TORSDOF 8
ENDMDL
MODEL 7
REMARK VINA RESULT:      -8.7      2.582      4.130
REMARK SMILES CNc1ccc2ccc(OCc3cc(C#N)cc(-n4ccc5c(N)ncnc54)c3)cc2n1
REMARK SMILES IDX 11 1 10 4 9 5 3 6 4 7 32 8 5 9 31 11 6 12 30 14 7 15 8 17
REMARK SMILES IDX 2 20 1 22 12 26 13 27 29 28 14 29 18 31 17 33 15 35 16 36
REMARK SMILES IDX 19 37 20 38 28 39 21 40 22 42 27 43 23 45 26 46 25 47 24 49
REMARK H PARENT 11 2 11 3 4 10 5 13 30 16 7 18 8 19 2 21 1 23 1 24 1 25 13 30
REMARK H PARENT 29 32 17 34 20 41 21 44 26 48 24 50 24 51
REMARK Flexibility Score: inf
ROOT
ATOM      1  C   UNL     1     -47.144  37.083  26.847  1.00  0.00     0.113 C 
ATOM      2  H   UNL     1     -47.704  36.793  27.744  1.00  0.00     0.076 H 
ATOM      3  H   UNL     1     -47.895  37.256  26.068  1.00  0.00     0.076 H 
ENDROOT
BRANCH   1   4
ATOM      4  O   UNL     1     -46.305  35.975  26.512  1.00  0.00    -0.489 OA
BRANCH   4   5
ATOM      5  C   UNL     1     -46.885  34.794  26.137  1.00  0.00     0.122 A 
ATOM      6  C   UNL     1     -47.019  30.548  24.007  1.00  0.00     0.126 A 
ATOM      7  C   UNL     1     -48.318  30.309  24.435  1.00  0.00    -0.019 A 
ATOM      8  N   UNL     1     -46.354  31.677  24.316  1.00  0.00    -0.231 NA
ATOM      9  C   UNL     1     -48.964  31.276  25.197  1.00  0.00    -0.049 A 
ATOM     10  H   UNL     1     -48.816  29.375  24.202  1.00  0.00     0.066 H 
ATOM     11  C   UNL     1     -46.975  32.616  25.055  1.00  0.00     0.076 A 
ATOM     12  C   UNL     1     -48.295  32.459  25.520  1.00  0.00     0.001 A 
ATOM     13  H   UNL     1     -49.979  31.095  25.539  1.00  0.00     0.063 H 
ATOM     14  C   UNL     1     -46.294  33.785  25.375  1.00  0.00     0.007 A 
ATOM     15  C   UNL     1     -48.900  33.466  26.286  1.00  0.00    -0.049 A 
ATOM     16  H   UNL     1     -45.279  33.871  25.006  1.00  0.00     0.069 H 
ATOM     17  C   UNL     1     -48.192  34.627  26.590  1.00  0.00    -0.019 A 
ATOM     18  H   UNL     1     -49.917  33.353  26.652  1.00  0.00     0.063 H 
ATOM     19  H   UNL     1     -48.661  35.405  27.188  1.00  0.00     0.066 H 
BRANCH   6  20
ATOM     20  N   UNL     1     -46.302  29.617  23.254  1.00  0.00    -0.373 N 
ATOM     21  H   UNL     1     -45.626  29.237  23.918  1.00  0.00     0.161 HD
BRANCH  20  22
ATOM     22  C   UNL     1     -45.641  30.177  22.088  1.00  0.00     0.005 C 
ATOM     23  H   UNL     1     -46.359  30.635  21.399  1.00  0.00     0.045 H 
ATOM     24  H   UNL     1     -44.945  30.957  22.412  1.00  0.00     0.045 H 
ATOM     25  H   UNL     1     -45.056  29.421  21.553  1.00  0.00     0.045 H 
ENDBRANCH  20  22
ENDBRANCH   6  20
ENDBRANCH   4   5
ENDBRANCH   1   4
BRANCH   1  26
ATOM     26  C   UNL     1     -46.363  38.335  27.190  1.00  0.00    -0.007 A 
ATOM     27  C   UNL     1     -45.347  38.289  28.150  1.00  0.00    -0.038 A 
ATOM     28  C   UNL     1     -46.615  39.546  26.517  1.00  0.00    -0.031 A 
ATOM     29  C   UNL     1     -44.615  39.438  28.452  1.00  0.00     0.054 A 
ATOM     30  H   UNL     1     -45.128  37.357  28.670  1.00  0.00     0.064 H 
ATOM     31  C   UNL     1     -45.892  40.713  26.807  1.00  0.00     0.049 A 
ATOM     32  H   UNL     1     -47.389  39.533  25.755  1.00  0.00     0.065 H 
ATOM     33  C   UNL     1     -44.886  40.642  27.787  1.00  0.00    -0.020 A 
ATOM     34  H   UNL     1     -44.304  41.514  28.074  1.00  0.00     0.066 H 
BRANCH  29  35
ATOM     35  C   UNL     1     -43.580  39.387  29.446  1.00  0.00     0.099 C 
ATOM     36  N   UNL     1     -42.744  39.356  30.250  1.00  0.00    -0.192 NA
ENDBRANCH  29  35
BRANCH  31  37
ATOM     37  N   UNL     1     -46.159  41.954  26.126  1.00  0.00    -0.301 N 
ATOM     38  C   UNL     1     -47.297  42.732  26.309  1.00  0.00     0.012 A 
ATOM     39  C   UNL     1     -45.366  42.611  25.178  1.00  0.00     0.150 A 
ATOM     40  C   UNL     1     -47.229  43.847  25.508  1.00  0.00    -0.031 A 
ATOM     41  H   UNL     1     -48.068  42.460  27.013  1.00  0.00     0.082 H 
ATOM     42  C   UNL     1     -46.017  43.778  24.785  1.00  0.00     0.061 A 
ATOM     43  N   UNL     1     -44.177  42.202  24.689  1.00  0.00    -0.218 NA
ATOM     44  H   UNL     1     -47.972  44.634  25.457  1.00  0.00     0.065 H 
ATOM     45  C   UNL     1     -45.381  44.582  23.828  1.00  0.00     0.136 A 
ATOM     46  C   UNL     1     -43.666  43.047  23.783  1.00  0.00     0.120 A 
ATOM     47  N   UNL     1     -44.194  44.196  23.331  1.00  0.00    -0.219 NA
ATOM     48  H   UNL     1     -42.706  42.767  23.361  1.00  0.00     0.106 H 
BRANCH  45  49
ATOM     49  N   UNL     1     -45.918  45.765  23.339  1.00  0.00    -0.383 N 
ATOM     50  H   UNL     1     -46.819  45.592  22.908  1.00  0.00     0.158 HD
ATOM     51  H   UNL     1     -45.867  46.550  23.973  1.00  0.00     0.158 HD
ENDBRANCH  45  49
ENDBRANCH  31  37
ENDBRANCH   1  26
TORSDOF 8
ENDMDL
