MODEL 1
REMARK VINA RESULT:     -10.1      0.000      0.000
REMARK SMILES CNc1ccc2ccc(OCc3cncc(-n4ccc5c(N)nc(N)nc54)c3)cc2n1
REMARK SMILES IDX 11 1 10 4 9 5 3 6 4 7 31 8 5 9 30 11 6 12 29 14 7 15 8 17
REMARK SMILES IDX 2 20 1 22 12 26 13 27 28 28 14 29 16 31 15 33 17 35 18 36
REMARK SMILES IDX 27 37 19 38 20 40 26 41 21 43 24 44 23 45 22 46 25 49
REMARK H PARENT 11 2 11 3 4 10 5 13 29 16 7 18 8 19 2 21 1 23 1 24 1 25 13 30
REMARK H PARENT 28 32 15 34 18 39 19 42 22 47 22 48 25 50 25 51
REMARK Flexibility Score: inf
ROOT
ATOM      1  C   UNL     1     -45.945  34.532  27.527  1.00  0.00     0.115 C 
ATOM      2  H   UNL     1     -45.280  33.786  27.980  1.00  0.00     0.076 H 
ATOM      3  H   UNL     1     -45.582  34.673  26.502  1.00  0.00     0.076 H 
ENDROOT
BRANCH   1   4
ATOM      4  O   UNL     1     -47.298  34.088  27.390  1.00  0.00    -0.489 OA
BRANCH   4   5
ATOM      5  C   UNL     1     -47.601  33.302  26.312  1.00  0.00     0.122 A 
ATOM      6  C   UNL     1     -46.483  30.476  22.652  1.00  0.00     0.126 A 
ATOM      7  C   UNL     1     -47.821  30.201  22.394  1.00  0.00    -0.019 A 
ATOM      8  N   UNL     1     -46.111  31.297  23.656  1.00  0.00    -0.231 NA
ATOM      9  C   UNL     1     -48.803  30.767  23.200  1.00  0.00    -0.049 A 
ATOM     10  H   UNL     1     -48.102  29.557  21.567  1.00  0.00     0.066 H 
ATOM     11  C   UNL     1     -47.059  31.866  24.426  1.00  0.00     0.076 A 
ATOM     12  C   UNL     1     -48.431  31.616  24.244  1.00  0.00     0.001 A 
ATOM     13  H   UNL     1     -49.849  30.545  23.005  1.00  0.00     0.063 H 
ATOM     14  C   UNL     1     -46.670  32.715  25.453  1.00  0.00     0.007 A 
ATOM     15  C   UNL     1     -49.376  32.201  25.102  1.00  0.00    -0.049 A 
ATOM     16  H   UNL     1     -45.604  32.871  25.586  1.00  0.00     0.069 H 
ATOM     17  C   UNL     1     -48.956  33.029  26.140  1.00  0.00    -0.019 A 
ATOM     18  H   UNL     1     -50.439  32.003  24.976  1.00  0.00     0.063 H 
ATOM     19  H   UNL     1     -49.688  33.464  26.817  1.00  0.00     0.066 H 
BRANCH   6  20
ATOM     20  N   UNL     1     -45.518  29.904  21.806  1.00  0.00    -0.373 N 
ATOM     21  H   UNL     1     -45.951  29.653  20.923  1.00  0.00     0.161 HD
BRANCH  20  22
ATOM     22  C   UNL     1     -44.777  28.798  22.389  1.00  0.00     0.005 C 
ATOM     23  H   UNL     1     -43.722  29.056  22.541  1.00  0.00     0.045 H 
ATOM     24  H   UNL     1     -45.217  28.473  23.337  1.00  0.00     0.045 H 
ATOM     25  H   UNL     1     -44.808  27.947  21.700  1.00  0.00     0.045 H 
ENDBRANCH  20  22
ENDBRANCH   6  20
ENDBRANCH   4   5
ENDBRANCH   1   4
BRANCH   1  26
ATOM     26  C   UNL     1     -45.846  35.844  28.263  1.00  0.00     0.010 A 
ATOM     27  C   UNL     1     -46.334  35.958  29.558  1.00  0.00     0.034 A 
ATOM     28  C   UNL     1     -45.340  37.007  27.668  1.00  0.00    -0.028 A 
ATOM     29  N   UNL     1     -46.335  37.107  30.269  1.00  0.00    -0.262 NA
ATOM     30  H   UNL     1     -46.754  35.105  30.085  1.00  0.00     0.084 H 
ATOM     31  C   UNL     1     -45.348  38.225  28.353  1.00  0.00     0.066 A 
ATOM     32  H   UNL     1     -44.922  36.934  26.670  1.00  0.00     0.065 H 
ATOM     33  C   UNL     1     -45.845  38.211  29.653  1.00  0.00     0.051 A 
ATOM     34  H   UNL     1     -45.911  39.099  30.272  1.00  0.00     0.086 H 
BRANCH  31  35
ATOM     35  N   UNL     1     -44.885  39.437  27.754  1.00  0.00    -0.300 N 
ATOM     36  C   UNL     1     -45.372  39.980  26.571  1.00  0.00     0.012 A 
ATOM     37  C   UNL     1     -43.872  40.285  28.209  1.00  0.00     0.152 A 
ATOM     38  C   UNL     1     -44.697  41.145  26.289  1.00  0.00    -0.031 A 
ATOM     39  H   UNL     1     -46.180  39.517  26.023  1.00  0.00     0.082 H 
ATOM     40  C   UNL     1     -43.747  41.342  27.318  1.00  0.00     0.062 A 
ATOM     41  N   UNL     1     -43.103  40.115  29.302  1.00  0.00    -0.194 NA
ATOM     42  H   UNL     1     -44.866  41.780  25.430  1.00  0.00     0.065 H 
ATOM     43  C   UNL     1     -42.767  42.299  27.605  1.00  0.00     0.138 A 
ATOM     44  C   UNL     1     -42.209  41.086  29.495  1.00  0.00     0.224 A 
ATOM     45  N   UNL     1     -42.007  42.148  28.704  1.00  0.00    -0.196 NA
BRANCH  43  46
ATOM     46  N   UNL     1     -42.533  43.420  26.818  1.00  0.00    -0.383 N 
ATOM     47  H   UNL     1     -43.230  44.131  27.009  1.00  0.00     0.158 HD
ATOM     48  H   UNL     1     -42.360  43.221  25.842  1.00  0.00     0.158 HD
ENDBRANCH  43  46
BRANCH  44  49
ATOM     49  N   UNL     1     -41.393  40.989  30.601  1.00  0.00    -0.368 N 
ATOM     50  H   UNL     1     -41.289  41.885  31.068  1.00  0.00     0.159 HD
ATOM     51  H   UNL     1     -41.685  40.215  31.178  1.00  0.00     0.159 HD
ENDBRANCH  44  49
ENDBRANCH  31  35
ENDBRANCH   1  26
TORSDOF 8
ENDMDL
MODEL 2
REMARK VINA RESULT:     -10.1      1.732     10.449
REMARK SMILES CNc1ccc2ccc(OCc3cncc(-n4ccc5c(N)nc(N)nc54)c3)cc2n1
REMARK SMILES IDX 11 1 10 4 9 5 3 6 4 7 31 8 5 9 30 11 6 12 29 14 7 15 8 17
REMARK SMILES IDX 2 20 1 22 12 26 13 27 28 28 14 29 16 31 15 33 17 35 18 36
REMARK SMILES IDX 27 37 19 38 20 40 26 41 21 43 24 44 23 45 22 46 25 49
REMARK H PARENT 11 2 11 3 4 10 5 13 29 16 7 18 8 19 2 21 1 23 1 24 1 25 13 30
REMARK H PARENT 28 32 15 34 18 39 19 42 22 47 22 48 25 50 25 51
REMARK Flexibility Score: inf
ROOT
ATOM      1  C   UNL     1     -46.759  36.991  27.028  1.00  0.00     0.115 C 
ATOM      2  H   UNL     1     -47.605  37.376  26.445  1.00  0.00     0.076 H 
ATOM      3  H   UNL     1     -45.858  37.299  26.484  1.00  0.00     0.076 H 
ENDROOT
BRANCH   1   4
ATOM      4  O   UNL     1     -46.638  37.584  28.324  1.00  0.00    -0.489 OA
BRANCH   4   5
ATOM      5  C   UNL     1     -45.548  38.376  28.560  1.00  0.00     0.122 A 
ATOM      6  C   UNL     1     -42.803  42.184  27.787  1.00  0.00     0.126 A 
ATOM      7  C   UNL     1     -41.980  41.868  28.862  1.00  0.00    -0.019 A 
ATOM      8  N   UNL     1     -43.856  41.411  27.452  1.00  0.00    -0.231 NA
ATOM      9  C   UNL     1     -42.258  40.741  29.628  1.00  0.00    -0.049 A 
ATOM     10  H   UNL     1     -41.123  42.489  29.100  1.00  0.00     0.066 H 
ATOM     11  C   UNL     1     -44.117  40.306  28.177  1.00  0.00     0.076 A 
ATOM     12  C   UNL     1     -43.348  39.935  29.294  1.00  0.00     0.001 A 
ATOM     13  H   UNL     1     -41.621  40.499  30.475  1.00  0.00     0.063 H 
ATOM     14  C   UNL     1     -45.200  39.511  27.824  1.00  0.00     0.007 A 
ATOM     15  C   UNL     1     -43.689  38.796  30.042  1.00  0.00    -0.049 A 
ATOM     16  H   UNL     1     -45.790  39.833  26.972  1.00  0.00     0.069 H 
ATOM     17  C   UNL     1     -44.795  38.030  29.679  1.00  0.00    -0.019 A 
ATOM     18  H   UNL     1     -43.106  38.509  30.914  1.00  0.00     0.063 H 
ATOM     19  H   UNL     1     -45.070  37.161  30.272  1.00  0.00     0.066 H 
BRANCH   6  20
ATOM     20  N   UNL     1     -42.481  43.318  27.022  1.00  0.00    -0.373 N 
ATOM     21  H   UNL     1     -43.317  43.875  26.877  1.00  0.00     0.161 HD
BRANCH  20  22
ATOM     22  C   UNL     1     -41.787  43.035  25.777  1.00  0.00     0.005 C 
ATOM     23  H   UNL     1     -42.001  42.021  25.418  1.00  0.00     0.045 H 
ATOM     24  H   UNL     1     -42.040  43.762  24.999  1.00  0.00     0.045 H 
ATOM     25  H   UNL     1     -40.708  43.098  25.949  1.00  0.00     0.045 H 
ENDBRANCH  20  22
ENDBRANCH   6  20
ENDBRANCH   4   5
ENDBRANCH   1   4
BRANCH   1  26
ATOM     26  C   UNL     1     -46.801  35.486  27.090  1.00  0.00     0.010 A 
ATOM     27  C   UNL     1     -46.027  34.802  28.018  1.00  0.00     0.034 A 
ATOM     28  C   UNL     1     -47.543  34.714  26.186  1.00  0.00    -0.028 A 
ATOM     29  N   UNL     1     -45.962  33.455  28.106  1.00  0.00    -0.262 NA
ATOM     30  H   UNL     1     -45.413  35.328  28.745  1.00  0.00     0.084 H 
ATOM     31  C   UNL     1     -47.484  33.318  26.220  1.00  0.00     0.066 A 
ATOM     32  H   UNL     1     -48.182  35.226  25.475  1.00  0.00     0.065 H 
ATOM     33  C   UNL     1     -46.688  32.746  27.207  1.00  0.00     0.051 A 
ATOM     34  H   UNL     1     -46.559  31.674  27.318  1.00  0.00     0.086 H 
BRANCH  31  35
ATOM     35  N   UNL     1     -48.190  32.505  25.280  1.00  0.00    -0.300 N 
ATOM     36  C   UNL     1     -49.573  32.399  25.195  1.00  0.00     0.012 A 
ATOM     37  C   UNL     1     -47.653  31.665  24.300  1.00  0.00     0.152 A 
ATOM     38  C   UNL     1     -49.906  31.529  24.183  1.00  0.00    -0.031 A 
ATOM     39  H   UNL     1     -50.228  32.967  25.841  1.00  0.00     0.082 H 
ATOM     40  C   UNL     1     -48.698  31.060  23.615  1.00  0.00     0.062 A 
ATOM     41  N   UNL     1     -46.348  31.432  24.059  1.00  0.00    -0.194 NA
ATOM     42  H   UNL     1     -50.911  31.255  23.890  1.00  0.00     0.065 H 
ATOM     43  C   UNL     1     -48.353  30.169  22.592  1.00  0.00     0.138 A 
ATOM     44  C   UNL     1     -46.124  30.580  23.058  1.00  0.00     0.224 A 
ATOM     45  N   UNL     1     -47.053  29.945  22.332  1.00  0.00    -0.196 NA
BRANCH  43  46
ATOM     46  N   UNL     1     -49.285  29.500  21.809  1.00  0.00    -0.383 N 
ATOM     47  H   UNL     1     -50.121  29.309  22.350  1.00  0.00     0.158 HD
ATOM     48  H   UNL     1     -48.912  28.723  21.281  1.00  0.00     0.158 HD
ENDBRANCH  43  46
BRANCH  44  49
ATOM     49  N   UNL     1     -44.811  30.300  22.743  1.00  0.00    -0.368 N 
ATOM     50  H   UNL     1     -44.184  30.551  23.501  1.00  0.00     0.159 HD
ATOM     51  H   UNL     1     -44.736  29.358  22.391  1.00  0.00     0.159 HD
ENDBRANCH  44  49
ENDBRANCH  31  35
ENDBRANCH   1  26
TORSDOF 8
ENDMDL
MODEL 3
REMARK VINA RESULT:      -9.7      2.071     10.502
REMARK SMILES CNc1ccc2ccc(OCc3cncc(-n4ccc5c(N)nc(N)nc54)c3)cc2n1
REMARK SMILES IDX 11 1 10 4 9 5 3 6 4 7 31 8 5 9 30 11 6 12 29 14 7 15 8 17
REMARK SMILES IDX 2 20 1 22 12 26 13 27 28 28 14 29 16 31 15 33 17 35 18 36
REMARK SMILES IDX 27 37 19 38 20 40 26 41 21 43 24 44 23 45 22 46 25 49
REMARK H PARENT 11 2 11 3 4 10 5 13 29 16 7 18 8 19 2 21 1 23 1 24 1 25 13 30
REMARK H PARENT 28 32 15 34 18 39 19 42 22 47 22 48 25 50 25 51
REMARK Flexibility Score: inf
ROOT
ATOM      1  C   UNL     1     -46.852  36.851  26.699  1.00  0.00     0.115 C 
ATOM      2  H   UNL     1     -47.676  37.147  26.039  1.00  0.00     0.076 H 
ATOM      3  H   UNL     1     -45.938  37.224  26.222  1.00  0.00     0.076 H 
ENDROOT
BRANCH   1   4
ATOM      4  O   UNL     1     -46.891  37.480  27.983  1.00  0.00    -0.489 OA
BRANCH   4   5
ATOM      5  C   UNL     1     -45.784  38.180  28.380  1.00  0.00     0.122 A 
ATOM      6  C   UNL     1     -42.723  41.813  28.124  1.00  0.00     0.126 A 
ATOM      7  C   UNL     1     -42.051  41.388  29.264  1.00  0.00    -0.019 A 
ATOM      8  N   UNL     1     -43.781  41.134  27.634  1.00  0.00    -0.231 NA
ATOM      9  C   UNL     1     -42.487  40.249  29.931  1.00  0.00    -0.049 A 
ATOM     10  H   UNL     1     -41.187  41.934  29.629  1.00  0.00     0.066 H 
ATOM     11  C   UNL     1     -44.195  40.018  28.264  1.00  0.00     0.076 A 
ATOM     12  C   UNL     1     -43.584  39.540  29.437  1.00  0.00     0.001 A 
ATOM     13  H   UNL     1     -41.968  39.922  30.829  1.00  0.00     0.063 H 
ATOM     14  C   UNL     1     -45.281  39.320  27.751  1.00  0.00     0.007 A 
ATOM     15  C   UNL     1     -44.082  38.395  30.078  1.00  0.00    -0.049 A 
ATOM     16  H   UNL     1     -45.748  39.724  26.858  1.00  0.00     0.069 H 
ATOM     17  C   UNL     1     -45.187  37.728  29.555  1.00  0.00    -0.019 A 
ATOM     18  H   UNL     1     -43.621  38.026  30.993  1.00  0.00     0.063 H 
ATOM     19  H   UNL     1     -45.585  36.854  30.065  1.00  0.00     0.066 H 
BRANCH   6  20
ATOM     20  N   UNL     1     -42.242  42.956  27.462  1.00  0.00    -0.373 N 
ATOM     21  H   UNL     1     -42.401  43.773  28.043  1.00  0.00     0.161 HD
BRANCH  20  22
ATOM     22  C   UNL     1     -42.749  43.135  26.112  1.00  0.00     0.005 C 
ATOM     23  H   UNL     1     -43.728  42.657  25.983  1.00  0.00     0.045 H 
ATOM     24  H   UNL     1     -42.818  44.194  25.844  1.00  0.00     0.045 H 
ATOM     25  H   UNL     1     -42.059  42.660  25.408  1.00  0.00     0.045 H 
ENDBRANCH  20  22
ENDBRANCH   6  20
ENDBRANCH   4   5
ENDBRANCH   1   4
BRANCH   1  26
ATOM     26  C   UNL     1     -46.770  35.350  26.800  1.00  0.00     0.010 A 
ATOM     27  C   UNL     1     -46.467  34.745  28.014  1.00  0.00     0.034 A 
ATOM     28  C   UNL     1     -46.915  34.509  25.689  1.00  0.00    -0.028 A 
ATOM     29  N   UNL     1     -46.320  33.413  28.181  1.00  0.00    -0.262 NA
ATOM     30  H   UNL     1     -46.326  35.329  28.920  1.00  0.00     0.084 H 
ATOM     31  C   UNL     1     -46.743  33.127  25.808  1.00  0.00     0.066 A 
ATOM     32  H   UNL     1     -47.187  34.956  24.739  1.00  0.00     0.065 H 
ATOM     33  C   UNL     1     -46.459  32.637  27.079  1.00  0.00     0.051 A 
ATOM     34  H   UNL     1     -46.294  31.584  27.284  1.00  0.00     0.086 H 
BRANCH  31  35
ATOM     35  N   UNL     1     -46.835  32.251  24.683  1.00  0.00    -0.300 N 
ATOM     36  C   UNL     1     -45.754  31.756  23.965  1.00  0.00     0.012 A 
ATOM     37  C   UNL     1     -47.993  31.745  24.084  1.00  0.00     0.152 A 
ATOM     38  C   UNL     1     -46.209  30.949  22.947  1.00  0.00    -0.031 A 
ATOM     39  H   UNL     1     -44.734  31.989  24.238  1.00  0.00     0.082 H 
ATOM     40  C   UNL     1     -47.621  30.939  23.016  1.00  0.00     0.062 A 
ATOM     41  N   UNL     1     -49.267  32.004  24.436  1.00  0.00    -0.194 NA
ATOM     42  H   UNL     1     -45.589  30.429  22.229  1.00  0.00     0.065 H 
ATOM     43  C   UNL     1     -48.655  30.345  22.282  1.00  0.00     0.138 A 
ATOM     44  C   UNL     1     -50.176  31.381  23.684  1.00  0.00     0.224 A 
ATOM     45  N   UNL     1     -49.929  30.583  22.637  1.00  0.00    -0.196 NA
BRANCH  43  46
ATOM     46  N   UNL     1     -48.441  29.503  21.198  1.00  0.00    -0.383 N 
ATOM     47  H   UNL     1     -48.434  28.536  21.504  1.00  0.00     0.158 HD
ATOM     48  H   UNL     1     -47.682  29.780  20.592  1.00  0.00     0.158 HD
ENDBRANCH  43  46
BRANCH  44  49
ATOM     49  N   UNL     1     -51.504  31.587  23.991  1.00  0.00    -0.368 N 
ATOM     50  H   UNL     1     -52.115  31.073  23.364  1.00  0.00     0.159 HD
ATOM     51  H   UNL     1     -51.654  31.448  24.978  1.00  0.00     0.159 HD
ENDBRANCH  44  49
ENDBRANCH  31  35
ENDBRANCH   1  26
TORSDOF 8
ENDMDL
MODEL 4
REMARK VINA RESULT:      -9.7      1.431      2.289
REMARK SMILES CNc1ccc2ccc(OCc3cncc(-n4ccc5c(N)nc(N)nc54)c3)cc2n1
REMARK SMILES IDX 11 1 10 4 9 5 3 6 4 7 31 8 5 9 30 11 6 12 29 14 7 15 8 17
REMARK SMILES IDX 2 20 1 22 12 26 13 27 28 28 14 29 16 31 15 33 17 35 18 36
REMARK SMILES IDX 27 37 19 38 20 40 26 41 21 43 24 44 23 45 22 46 25 49
REMARK H PARENT 11 2 11 3 4 10 5 13 29 16 7 18 8 19 2 21 1 23 1 24 1 25 13 30
REMARK H PARENT 28 32 15 34 18 39 19 42 22 47 22 48 25 50 25 51
REMARK Flexibility Score: inf
ROOT
ATOM      1  C   UNL     1     -46.052  34.306  27.092  1.00  0.00     0.115 C 
ATOM      2  H   UNL     1     -45.141  33.869  27.517  1.00  0.00     0.076 H 
ATOM      3  H   UNL     1     -45.843  34.455  26.025  1.00  0.00     0.076 H 
ENDROOT
BRANCH   1   4
ATOM      4  O   UNL     1     -47.183  33.432  27.135  1.00  0.00    -0.489 OA
BRANCH   4   5
ATOM      5  C   UNL     1     -47.393  32.613  26.060  1.00  0.00     0.122 A 
ATOM      6  C   UNL     1     -46.408  30.956  21.710  1.00  0.00     0.126 A 
ATOM      7  C   UNL     1     -47.362  29.951  21.825  1.00  0.00    -0.019 A 
ATOM      8  N   UNL     1     -46.193  31.844  22.704  1.00  0.00    -0.231 NA
ATOM      9  C   UNL     1     -48.101  29.841  22.998  1.00  0.00    -0.049 A 
ATOM     10  H   UNL     1     -47.537  29.262  21.006  1.00  0.00     0.066 H 
ATOM     11  C   UNL     1     -46.922  31.756  23.833  1.00  0.00     0.076 A 
ATOM     12  C   UNL     1     -47.886  30.752  24.035  1.00  0.00     0.001 A 
ATOM     13  H   UNL     1     -48.841  29.050  23.093  1.00  0.00     0.063 H 
ATOM     14  C   UNL     1     -46.701  32.676  24.849  1.00  0.00     0.007 A 
ATOM     15  C   UNL     1     -48.588  30.679  25.248  1.00  0.00    -0.049 A 
ATOM     16  H   UNL     1     -45.935  33.425  24.676  1.00  0.00     0.069 H 
ATOM     17  C   UNL     1     -48.329  31.600  26.260  1.00  0.00    -0.019 A 
ATOM     18  H   UNL     1     -49.327  29.898  25.417  1.00  0.00     0.063 H 
ATOM     19  H   UNL     1     -48.858  31.529  27.208  1.00  0.00     0.066 H 
BRANCH   6  20
ATOM     20  N   UNL     1     -45.693  31.051  20.504  1.00  0.00    -0.373 N 
ATOM     21  H   UNL     1     -44.748  31.368  20.696  1.00  0.00     0.161 HD
BRANCH  20  22
ATOM     22  C   UNL     1     -46.341  31.847  19.475  1.00  0.00     0.005 C 
ATOM     23  H   UNL     1     -45.752  31.867  18.550  1.00  0.00     0.045 H 
ATOM     24  H   UNL     1     -47.351  31.483  19.260  1.00  0.00     0.045 H 
ATOM     25  H   UNL     1     -46.430  32.879  19.828  1.00  0.00     0.045 H 
ENDBRANCH  20  22
ENDBRANCH   6  20
ENDBRANCH   4   5
ENDBRANCH   1   4
BRANCH   1  26
ATOM     26  C   UNL     1     -46.339  35.645  27.722  1.00  0.00     0.010 A 
ATOM     27  C   UNL     1     -47.650  36.042  27.954  1.00  0.00     0.034 A 
ATOM     28  C   UNL     1     -45.330  36.567  28.028  1.00  0.00    -0.028 A 
ATOM     29  N   UNL     1     -47.998  37.244  28.463  1.00  0.00    -0.262 NA
ATOM     30  H   UNL     1     -48.490  35.389  27.731  1.00  0.00     0.084 H 
ATOM     31  C   UNL     1     -45.645  37.834  28.529  1.00  0.00     0.066 A 
ATOM     32  H   UNL     1     -44.298  36.265  27.889  1.00  0.00     0.065 H 
ATOM     33  C   UNL     1     -46.992  38.110  28.737  1.00  0.00     0.051 A 
ATOM     34  H   UNL     1     -47.351  39.064  29.110  1.00  0.00     0.086 H 
BRANCH  31  35
ATOM     35  N   UNL     1     -44.640  38.813  28.803  1.00  0.00    -0.300 N 
ATOM     36  C   UNL     1     -43.872  38.868  29.960  1.00  0.00     0.012 A 
ATOM     37  C   UNL     1     -44.251  39.889  28.000  1.00  0.00     0.152 A 
ATOM     38  C   UNL     1     -43.012  39.939  29.889  1.00  0.00    -0.031 A 
ATOM     39  H   UNL     1     -43.970  38.130  30.744  1.00  0.00     0.082 H 
ATOM     40  C   UNL     1     -43.247  40.589  28.656  1.00  0.00     0.062 A 
ATOM     41  N   UNL     1     -44.768  40.237  26.806  1.00  0.00    -0.194 NA
ATOM     42  H   UNL     1     -42.296  40.225  30.649  1.00  0.00     0.065 H 
ATOM     43  C   UNL     1     -42.732  41.716  28.004  1.00  0.00     0.138 A 
ATOM     44  C   UNL     1     -44.201  41.315  26.262  1.00  0.00     0.224 A 
ATOM     45  N   UNL     1     -43.229  42.059  26.803  1.00  0.00    -0.196 NA
BRANCH  43  46
ATOM     46  N   UNL     1     -41.716  42.507  28.525  1.00  0.00    -0.383 N 
ATOM     47  H   UNL     1     -41.914  43.486  28.351  1.00  0.00     0.158 HD
ATOM     48  H   UNL     1     -40.782  42.197  28.297  1.00  0.00     0.158 HD
ENDBRANCH  43  46
BRANCH  44  49
ATOM     49  N   UNL     1     -44.668  41.726  25.032  1.00  0.00    -0.368 N 
ATOM     50  H   UNL     1     -45.171  40.983  24.556  1.00  0.00     0.159 HD
ATOM     51  H   UNL     1     -45.152  42.607  25.125  1.00  0.00     0.159 HD
ENDBRANCH  44  49
ENDBRANCH  31  35
ENDBRANCH   1  26
TORSDOF 8
ENDMDL
MODEL 5
REMARK VINA RESULT:      -9.5      2.806     11.181
REMARK SMILES CNc1ccc2ccc(OCc3cncc(-n4ccc5c(N)nc(N)nc54)c3)cc2n1
REMARK SMILES IDX 11 1 10 4 9 5 3 6 4 7 31 8 5 9 30 11 6 12 29 14 7 15 8 17
REMARK SMILES IDX 2 20 1 22 12 26 13 27 28 28 14 29 16 31 15 33 17 35 18 36
REMARK SMILES IDX 27 37 19 38 20 40 26 41 21 43 24 44 23 45 22 46 25 49
REMARK H PARENT 11 2 11 3 4 10 5 13 29 16 7 18 8 19 2 21 1 23 1 24 1 25 13 30
REMARK H PARENT 28 32 15 34 18 39 19 42 22 47 22 48 25 50 25 51
REMARK Flexibility Score: inf
ROOT
ATOM      1  C   UNL     1     -48.528  34.173  26.409  1.00  0.00     0.115 C 
ATOM      2  H   UNL     1     -49.611  34.025  26.503  1.00  0.00     0.076 H 
ATOM      3  H   UNL     1     -48.401  35.122  25.874  1.00  0.00     0.076 H 
ENDROOT
BRANCH   1   4
ATOM      4  O   UNL     1     -47.861  34.353  27.661  1.00  0.00    -0.489 OA
BRANCH   4   5
ATOM      5  C   UNL     1     -47.102  35.481  27.818  1.00  0.00     0.122 A 
ATOM      6  C   UNL     1     -45.764  39.906  26.692  1.00  0.00     0.126 A 
ATOM      7  C   UNL     1     -44.909  39.976  27.786  1.00  0.00    -0.019 A 
ATOM      8  N   UNL     1     -46.492  38.799  26.434  1.00  0.00    -0.231 NA
ATOM      9  C   UNL     1     -44.814  38.891  28.651  1.00  0.00    -0.049 A 
ATOM     10  H   UNL     1     -44.313  40.866  27.963  1.00  0.00     0.066 H 
ATOM     11  C   UNL     1     -46.388  37.737  27.256  1.00  0.00     0.076 A 
ATOM     12  C   UNL     1     -45.566  37.742  28.397  1.00  0.00     0.001 A 
ATOM     13  H   UNL     1     -44.154  38.949  29.512  1.00  0.00     0.063 H 
ATOM     14  C   UNL     1     -47.135  36.599  26.982  1.00  0.00     0.007 A 
ATOM     15  C   UNL     1     -45.526  36.624  29.245  1.00  0.00    -0.049 A 
ATOM     16  H   UNL     1     -47.778  36.632  26.109  1.00  0.00     0.069 H 
ATOM     17  C   UNL     1     -46.304  35.504  28.959  1.00  0.00    -0.019 A 
ATOM     18  H   UNL     1     -44.901  36.624  30.136  1.00  0.00     0.063 H 
ATOM     19  H   UNL     1     -46.289  34.647  29.629  1.00  0.00     0.066 H 
BRANCH   6  20
ATOM     20  N   UNL     1     -45.820  41.012  25.827  1.00  0.00    -0.373 N 
ATOM     21  H   UNL     1     -46.346  40.763  24.996  1.00  0.00     0.161 HD
BRANCH  20  22
ATOM     22  C   UNL     1     -44.529  41.598  25.505  1.00  0.00     0.005 C 
ATOM     23  H   UNL     1     -43.753  41.273  26.209  1.00  0.00     0.045 H 
ATOM     24  H   UNL     1     -44.221  41.359  24.482  1.00  0.00     0.045 H 
ATOM     25  H   UNL     1     -44.604  42.687  25.583  1.00  0.00     0.045 H 
ENDBRANCH  20  22
ENDBRANCH   6  20
ENDBRANCH   4   5
ENDBRANCH   1   4
BRANCH   1  26
ATOM     26  C   UNL     1     -47.915  33.066  25.589  1.00  0.00     0.010 A 
ATOM     27  C   UNL     1     -46.539  33.014  25.402  1.00  0.00     0.034 A 
ATOM     28  C   UNL     1     -48.685  32.103  24.925  1.00  0.00    -0.028 A 
ATOM     29  N   UNL     1     -45.913  32.092  24.639  1.00  0.00    -0.262 NA
ATOM     30  H   UNL     1     -45.874  33.734  25.872  1.00  0.00     0.084 H 
ATOM     31  C   UNL     1     -48.083  31.147  24.102  1.00  0.00     0.066 A 
ATOM     32  H   UNL     1     -49.757  32.103  25.085  1.00  0.00     0.065 H 
ATOM     33  C   UNL     1     -46.695  31.183  24.007  1.00  0.00     0.051 A 
ATOM     34  H   UNL     1     -46.125  30.499  23.388  1.00  0.00     0.086 H 
BRANCH  31  35
ATOM     35  N   UNL     1     -48.846  30.184  23.373  1.00  0.00    -0.300 N 
ATOM     36  C   UNL     1     -49.229  30.307  22.043  1.00  0.00     0.012 A 
ATOM     37  C   UNL     1     -49.363  28.971  23.838  1.00  0.00     0.152 A 
ATOM     38  C   UNL     1     -49.955  29.200  21.669  1.00  0.00    -0.031 A 
ATOM     39  H   UNL     1     -48.938  31.159  21.444  1.00  0.00     0.082 H 
ATOM     40  C   UNL     1     -50.046  28.353  22.798  1.00  0.00     0.062 A 
ATOM     41  N   UNL     1     -49.265  28.473  25.086  1.00  0.00    -0.194 NA
ATOM     42  H   UNL     1     -50.381  29.025  20.690  1.00  0.00     0.065 H 
ATOM     43  C   UNL     1     -50.645  27.120  23.079  1.00  0.00     0.138 A 
ATOM     44  C   UNL     1     -49.856  27.289  25.248  1.00  0.00     0.224 A 
ATOM     45  N   UNL     1     -50.536  26.607  24.316  1.00  0.00    -0.196 NA
BRANCH  43  46
ATOM     46  N   UNL     1     -51.347  26.376  22.139  1.00  0.00    -0.383 N 
ATOM     47  H   UNL     1     -50.742  25.675  21.726  1.00  0.00     0.158 HD
ATOM     48  H   UNL     1     -51.895  26.925  21.491  1.00  0.00     0.158 HD
ENDBRANCH  43  46
BRANCH  44  49
ATOM     49  N   UNL     1     -49.788  26.709  26.496  1.00  0.00    -0.368 N 
ATOM     50  H   UNL     1     -49.143  27.206  27.103  1.00  0.00     0.159 HD
ATOM     51  H   UNL     1     -50.718  26.559  26.857  1.00  0.00     0.159 HD
ENDBRANCH  44  49
ENDBRANCH  31  35
ENDBRANCH   1  26
TORSDOF 8
ENDMDL
MODEL 6
REMARK VINA RESULT:      -9.5      1.754      2.763
REMARK SMILES CNc1ccc2ccc(OCc3cncc(-n4ccc5c(N)nc(N)nc54)c3)cc2n1
REMARK SMILES IDX 11 1 10 4 9 5 3 6 4 7 31 8 5 9 30 11 6 12 29 14 7 15 8 17
REMARK SMILES IDX 2 20 1 22 12 26 13 27 28 28 14 29 16 31 15 33 17 35 18 36
REMARK SMILES IDX 27 37 19 38 20 40 26 41 21 43 24 44 23 45 22 46 25 49
REMARK H PARENT 11 2 11 3 4 10 5 13 29 16 7 18 8 19 2 21 1 23 1 24 1 25 13 30
REMARK H PARENT 28 32 15 34 18 39 19 42 22 47 22 48 25 50 25 51
REMARK Flexibility Score: inf
ROOT
ATOM      1  C   UNL     1     -46.846  36.860  27.838  1.00  0.00     0.115 C 
ATOM      2  H   UNL     1     -47.762  37.458  27.756  1.00  0.00     0.076 H 
ATOM      3  H   UNL     1     -47.103  36.007  28.478  1.00  0.00     0.076 H 
ENDROOT
BRANCH   1   4
ATOM      4  O   UNL     1     -46.421  36.286  26.599  1.00  0.00    -0.489 OA
BRANCH   4   5
ATOM      5  C   UNL     1     -46.999  35.107  26.214  1.00  0.00     0.122 A 
ATOM      6  C   UNL     1     -46.953  30.798  24.198  1.00  0.00     0.126 A 
ATOM      7  C   UNL     1     -48.256  30.540  24.609  1.00  0.00    -0.019 A 
ATOM      8  N   UNL     1     -46.342  31.967  24.481  1.00  0.00    -0.231 NA
ATOM      9  C   UNL     1     -48.942  31.497  25.348  1.00  0.00    -0.049 A 
ATOM     10  H   UNL     1     -48.739  29.603  24.351  1.00  0.00     0.066 H 
ATOM     11  C   UNL     1     -47.009  32.907  25.178  1.00  0.00     0.076 A 
ATOM     12  C   UNL     1     -48.319  32.709  25.652  1.00  0.00     0.001 A 
ATOM     13  H   UNL     1     -49.957  31.292  25.679  1.00  0.00     0.063 H 
ATOM     14  C   UNL     1     -46.377  34.110  25.461  1.00  0.00     0.007 A 
ATOM     15  C   UNL     1     -48.955  33.705  26.410  1.00  0.00    -0.049 A 
ATOM     16  H   UNL     1     -45.358  34.227  25.104  1.00  0.00     0.069 H 
ATOM     17  C   UNL     1     -48.287  34.893  26.700  1.00  0.00    -0.019 A 
ATOM     18  H   UNL     1     -49.963  33.555  26.790  1.00  0.00     0.063 H 
ATOM     19  H   UNL     1     -48.773  35.654  27.307  1.00  0.00     0.066 H 
BRANCH   6  20
ATOM     20  N   UNL     1     -46.296  29.818  23.435  1.00  0.00    -0.373 N 
ATOM     21  H   UNL     1     -46.320  30.082  22.455  1.00  0.00     0.161 HD
BRANCH  20  22
ATOM     22  C   UNL     1     -46.771  28.461  23.650  1.00  0.00     0.005 C 
ATOM     23  H   UNL     1     -46.109  27.906  24.327  1.00  0.00     0.045 H 
ATOM     24  H   UNL     1     -47.793  28.449  24.043  1.00  0.00     0.045 H 
ATOM     25  H   UNL     1     -46.777  27.931  22.693  1.00  0.00     0.045 H 
ENDBRANCH  20  22
ENDBRANCH   6  20
ENDBRANCH   4   5
ENDBRANCH   1   4
BRANCH   1  26
ATOM     26  C   UNL     1     -45.754  37.657  28.503  1.00  0.00     0.010 A 
ATOM     27  C   UNL     1     -45.369  37.365  29.806  1.00  0.00     0.034 A 
ATOM     28  C   UNL     1     -45.139  38.756  27.889  1.00  0.00    -0.028 A 
ATOM     29  N   UNL     1     -44.440  38.062  30.495  1.00  0.00    -0.262 NA
ATOM     30  H   UNL     1     -45.808  36.537  30.357  1.00  0.00     0.084 H 
ATOM     31  C   UNL     1     -44.194  39.524  28.573  1.00  0.00     0.066 A 
ATOM     32  H   UNL     1     -45.398  38.980  26.860  1.00  0.00     0.065 H 
ATOM     33  C   UNL     1     -43.876  39.122  29.867  1.00  0.00     0.051 A 
ATOM     34  H   UNL     1     -43.166  39.652  30.495  1.00  0.00     0.086 H 
BRANCH  31  35
ATOM     35  N   UNL     1     -43.587  40.679  27.990  1.00  0.00    -0.300 N 
ATOM     36  C   UNL     1     -42.241  41.009  28.085  1.00  0.00     0.012 A 
ATOM     37  C   UNL     1     -44.206  41.688  27.246  1.00  0.00     0.152 A 
ATOM     38  C   UNL     1     -42.007  42.185  27.410  1.00  0.00    -0.031 A 
ATOM     39  H   UNL     1     -41.535  40.374  28.602  1.00  0.00     0.082 H 
ATOM     40  C   UNL     1     -43.244  42.620  26.880  1.00  0.00     0.062 A 
ATOM     41  N   UNL     1     -45.516  41.788  26.948  1.00  0.00    -0.194 NA
ATOM     42  H   UNL     1     -41.050  42.680  27.317  1.00  0.00     0.065 H 
ATOM     43  C   UNL     1     -43.681  43.719  26.131  1.00  0.00     0.138 A 
ATOM     44  C   UNL     1     -45.828  42.861  26.221  1.00  0.00     0.224 A 
ATOM     45  N   UNL     1     -44.983  43.817  25.813  1.00  0.00    -0.196 NA
BRANCH  43  46
ATOM     46  N   UNL     1     -42.836  44.725  25.679  1.00  0.00    -0.383 N 
ATOM     47  H   UNL     1     -41.899  44.581  26.038  1.00  0.00     0.158 HD
ATOM     48  H   UNL     1     -43.207  45.660  25.772  1.00  0.00     0.158 HD
ENDBRANCH  43  46
BRANCH  44  49
ATOM     49  N   UNL     1     -47.149  43.027  25.865  1.00  0.00    -0.368 N 
ATOM     50  H   UNL     1     -47.447  43.991  25.976  1.00  0.00     0.159 HD
ATOM     51  H   UNL     1     -47.318  42.606  24.964  1.00  0.00     0.159 HD
ENDBRANCH  44  49
ENDBRANCH  31  35
ENDBRANCH   1  26
TORSDOF 8
ENDMDL
MODEL 7
REMARK VINA RESULT:      -9.5      2.642     10.988
REMARK SMILES CNc1ccc2ccc(OCc3cncc(-n4ccc5c(N)nc(N)nc54)c3)cc2n1
REMARK SMILES IDX 11 1 10 4 9 5 3 6 4 7 31 8 5 9 30 11 6 12 29 14 7 15 8 17
REMARK SMILES IDX 2 20 1 22 12 26 13 27 28 28 14 29 16 31 15 33 17 35 18 36
REMARK SMILES IDX 27 37 19 38 20 40 26 41 21 43 24 44 23 45 22 46 25 49
REMARK H PARENT 11 2 11 3 4 10 5 13 29 16 7 18 8 19 2 21 1 23 1 24 1 25 13 30
REMARK H PARENT 28 32 15 34 18 39 19 42 22 47 22 48 25 50 25 51
REMARK Flexibility Score: inf
ROOT
ATOM      1  C   UNL     1     -48.170  35.297  27.234  1.00  0.00     0.115 C 
ATOM      2  H   UNL     1     -49.113  35.072  27.746  1.00  0.00     0.076 H 
ATOM      3  H   UNL     1     -48.371  36.177  26.611  1.00  0.00     0.076 H 
ENDROOT
BRANCH   1   4
ATOM      4  O   UNL     1     -47.117  35.694  28.117  1.00  0.00    -0.489 OA
BRANCH   4   5
ATOM      5  C   UNL     1     -46.539  36.916  27.907  1.00  0.00     0.122 A 
ATOM      6  C   UNL     1     -43.376  40.348  28.828  1.00  0.00     0.126 A 
ATOM      7  C   UNL     1     -43.790  41.090  27.728  1.00  0.00    -0.019 A 
ATOM      8  N   UNL     1     -43.948  39.166  29.139  1.00  0.00    -0.231 NA
ATOM      9  C   UNL     1     -44.802  40.597  26.912  1.00  0.00    -0.049 A 
ATOM     10  H   UNL     1     -43.335  42.051  27.509  1.00  0.00     0.066 H 
ATOM     11  C   UNL     1     -44.944  38.693  28.364  1.00  0.00     0.076 A 
ATOM     12  C   UNL     1     -45.399  39.373  27.220  1.00  0.00     0.001 A 
ATOM     13  H   UNL     1     -45.120  41.172  26.046  1.00  0.00     0.063 H 
ATOM     14  C   UNL     1     -45.532  37.479  28.692  1.00  0.00     0.007 A 
ATOM     15  C   UNL     1     -46.411  38.815  26.422  1.00  0.00    -0.049 A 
ATOM     16  H   UNL     1     -45.145  36.965  29.567  1.00  0.00     0.069 H 
ATOM     17  C   UNL     1     -46.967  37.584  26.761  1.00  0.00    -0.019 A 
ATOM     18  H   UNL     1     -46.760  39.329  25.529  1.00  0.00     0.063 H 
ATOM     19  H   UNL     1     -47.735  37.143  26.131  1.00  0.00     0.066 H 
BRANCH   6  20
ATOM     20  N   UNL     1     -42.366  40.886  29.644  1.00  0.00    -0.373 N 
ATOM     21  H   UNL     1     -42.680  40.892  30.609  1.00  0.00     0.161 HD
BRANCH  20  22
ATOM     22  C   UNL     1     -41.869  42.184  29.219  1.00  0.00     0.005 C 
ATOM     23  H   UNL     1     -40.871  42.387  29.627  1.00  0.00     0.045 H 
ATOM     24  H   UNL     1     -41.844  42.269  28.127  1.00  0.00     0.045 H 
ATOM     25  H   UNL     1     -42.540  42.962  29.596  1.00  0.00     0.045 H 
ENDBRANCH  20  22
ENDBRANCH   6  20
ENDBRANCH   4   5
ENDBRANCH   1   4
BRANCH   1  26
ATOM     26  C   UNL     1     -47.766  34.151  26.343  1.00  0.00     0.010 A 
ATOM     27  C   UNL     1     -46.479  34.086  25.825  1.00  0.00     0.034 A 
ATOM     28  C   UNL     1     -48.666  33.157  25.936  1.00  0.00    -0.028 A 
ATOM     29  N   UNL     1     -46.050  33.127  24.977  1.00  0.00    -0.262 NA
ATOM     30  H   UNL     1     -45.725  34.827  26.081  1.00  0.00     0.084 H 
ATOM     31  C   UNL     1     -48.276  32.161  25.037  1.00  0.00     0.066 A 
ATOM     32  H   UNL     1     -49.667  33.167  26.355  1.00  0.00     0.065 H 
ATOM     33  C   UNL     1     -46.955  32.189  24.602  1.00  0.00     0.051 A 
ATOM     34  H   UNL     1     -46.548  31.474  23.895  1.00  0.00     0.086 H 
BRANCH  31  35
ATOM     35  N   UNL     1     -49.186  31.164  24.567  1.00  0.00    -0.300 N 
ATOM     36  C   UNL     1     -50.184  31.375  23.623  1.00  0.00     0.012 A 
ATOM     37  C   UNL     1     -49.268  29.825  24.959  1.00  0.00     0.152 A 
ATOM     38  C   UNL     1     -50.871  30.201  23.412  1.00  0.00    -0.031 A 
ATOM     39  H   UNL     1     -50.323  32.335  23.147  1.00  0.00     0.082 H 
ATOM     40  C   UNL     1     -50.299  29.220  24.254  1.00  0.00     0.062 A 
ATOM     41  N   UNL     1     -48.513  29.205  25.887  1.00  0.00    -0.194 NA
ATOM     42  H   UNL     1     -51.701  30.070  22.730  1.00  0.00     0.065 H 
ATOM     43  C   UNL     1     -50.540  27.867  24.522  1.00  0.00     0.138 A 
ATOM     44  C   UNL     1     -48.812  27.917  26.059  1.00  0.00     0.224 A 
ATOM     45  N   UNL     1     -49.780  27.235  25.432  1.00  0.00    -0.196 NA
BRANCH  43  46
ATOM     46  N   UNL     1     -51.526  27.122  23.886  1.00  0.00    -0.383 N 
ATOM     47  H   UNL     1     -52.444  27.456  24.156  1.00  0.00     0.158 HD
ATOM     48  H   UNL     1     -51.389  26.121  23.926  1.00  0.00     0.158 HD
ENDBRANCH  43  46
BRANCH  44  49
ATOM     49  N   UNL     1     -48.074  27.210  26.985  1.00  0.00    -0.368 N 
ATOM     50  H   UNL     1     -48.405  26.254  27.074  1.00  0.00     0.159 HD
ATOM     51  H   UNL     1     -47.089  27.329  26.802  1.00  0.00     0.159 HD
ENDBRANCH  44  49
ENDBRANCH  31  35
ENDBRANCH   1  26
TORSDOF 8
ENDMDL
