MODEL 1
REMARK VINA RESULT:      -9.1      0.000      0.000
REMARK SMILES CCc1cc(NCCOC)c2ncc(OCc3cncc(-n4cc(-c5ccn(C)n5)c5c(N)ncnc54)c3)cc2n1
REMARK SMILES IDX 3 1 4 2 5 3 11 4 12 5 13 6 14 7 39 8 40 9 41 10 2 14 1 17
REMARK SMILES IDX 6 21 7 23 8 26 9 29 10 30 15 34 16 35 17 38 18 39 38 40
REMARK SMILES IDX 19 41 21 43 20 45 22 47 23 48 37 49 24 50 31 52 36 53 32 54
REMARK SMILES IDX 35 55 34 56 25 58 26 59 30 60 27 61 28 63 29 65 33 69
REMARK H PARENT 4 11 13 12 39 13 2 15 2 16 1 18 1 19 1 20 6 22 7 24 7 25 8 27
REMARK H PARENT 8 28 10 31 10 32 10 33 16 36 16 37 18 42 38 44 20 46 23 51
REMARK H PARENT 35 57 26 62 27 64 29 66 29 67 29 68 33 70 33 71
REMARK Flexibility Score: inf
ROOT
ATOM      1  C   UNL     1     -46.357  30.856  21.882  1.00  0.00     0.043 A 
ATOM      2  C   UNL     1     -46.942  29.628  22.152  1.00  0.00    -0.015 A 
ATOM      3  C   UNL     1     -47.615  29.451  23.363  1.00  0.00     0.064 A 
ATOM      4  C   UNL     1     -47.722  30.516  24.272  1.00  0.00     0.112 A 
ATOM      5  N   UNL     1     -48.384  30.356  25.445  1.00  0.00    -0.249 NA
ATOM      6  C   UNL     1     -48.365  31.384  26.321  1.00  0.00     0.070 A 
ATOM      7  C   UNL     1     -47.712  32.580  26.084  1.00  0.00     0.140 A 
ATOM      8  C   UNL     1     -47.093  32.736  24.845  1.00  0.00     0.010 A 
ATOM      9  C   UNL     1     -47.070  31.710  23.915  1.00  0.00     0.095 A 
ATOM     10  N   UNL     1     -46.397  31.885  22.759  1.00  0.00    -0.251 NA
ATOM     11  H   UNL     1     -46.887  28.819  21.431  1.00  0.00     0.066 H 
ATOM     12  H   UNL     1     -48.889  31.174  27.246  1.00  0.00     0.088 H 
ATOM     13  H   UNL     1     -46.571  33.663  24.618  1.00  0.00     0.069 H 
ENDROOT
BRANCH   1  14
ATOM     14  C   UNL     1     -45.594  31.077  20.602  1.00  0.00    -0.013 C 
ATOM     15  H   UNL     1     -45.442  30.113  20.102  1.00  0.00     0.033 H 
ATOM     16  H   UNL     1     -44.596  31.473  20.825  1.00  0.00     0.033 H 
BRANCH  14  17
ATOM     17  C   UNL     1     -46.335  32.022  19.669  1.00  0.00    -0.060 C 
ATOM     18  H   UNL     1     -46.921  32.757  20.233  1.00  0.00     0.023 H 
ATOM     19  H   UNL     1     -45.641  32.572  19.024  1.00  0.00     0.023 H 
ATOM     20  H   UNL     1     -47.022  31.460  19.028  1.00  0.00     0.023 H 
ENDBRANCH  14  17
ENDBRANCH   1  14
BRANCH   3  21
ATOM     21  N   UNL     1     -48.185  28.183  23.686  1.00  0.00    -0.381 N 
ATOM     22  H   UNL     1     -47.579  27.474  23.244  1.00  0.00     0.160 HD
BRANCH  21  23
ATOM     23  C   UNL     1     -49.560  27.990  23.180  1.00  0.00     0.038 C 
ATOM     24  H   UNL     1     -49.564  27.777  22.106  1.00  0.00     0.051 H 
ATOM     25  H   UNL     1     -50.085  28.942  23.322  1.00  0.00     0.051 H 
BRANCH  23  26
ATOM     26  C   UNL     1     -50.310  26.891  23.948  1.00  0.00     0.063 C 
ATOM     27  H   UNL     1     -49.651  26.028  24.093  1.00  0.00     0.059 H 
ATOM     28  H   UNL     1     -50.629  27.255  24.932  1.00  0.00     0.059 H 
BRANCH  26  29
ATOM     29  O   UNL     1     -51.444  26.470  23.181  1.00  0.00    -0.383 OA
BRANCH  29  30
ATOM     30  C   UNL     1     -51.338  26.894  21.828  1.00  0.00     0.036 C 
ATOM     31  H   UNL     1     -51.989  26.290  21.190  1.00  0.00     0.053 H 
ATOM     32  H   UNL     1     -50.302  26.830  21.483  1.00  0.00     0.053 H 
ATOM     33  H   UNL     1     -51.665  27.936  21.767  1.00  0.00     0.053 H 
ENDBRANCH  29  30
ENDBRANCH  26  29
ENDBRANCH  23  26
ENDBRANCH  21  23
ENDBRANCH   3  21
BRANCH   7  34
ATOM     34  O   UNL     1     -47.543  33.619  26.955  1.00  0.00    -0.487 OA
BRANCH  34  35
ATOM     35  C   UNL     1     -47.731  34.955  26.477  1.00  0.00     0.115 C 
ATOM     36  H   UNL     1     -47.412  34.945  25.427  1.00  0.00     0.076 H 
ATOM     37  H   UNL     1     -48.800  35.203  26.475  1.00  0.00     0.076 H 
BRANCH  35  38
ATOM     38  C   UNL     1     -46.927  36.027  27.179  1.00  0.00     0.010 A 
ATOM     39  C   UNL     1     -46.181  35.690  28.302  1.00  0.00     0.034 A 
ATOM     40  C   UNL     1     -46.878  37.364  26.761  1.00  0.00    -0.028 A 
ATOM     41  N   UNL     1     -45.404  36.558  28.984  1.00  0.00    -0.262 NA
ATOM     42  H   UNL     1     -46.180  34.677  28.701  1.00  0.00     0.084 H 
ATOM     43  C   UNL     1     -46.044  38.285  27.402  1.00  0.00     0.066 A 
ATOM     44  H   UNL     1     -47.504  37.665  25.927  1.00  0.00     0.065 H 
ATOM     45  C   UNL     1     -45.345  37.829  28.514  1.00  0.00     0.051 A 
ATOM     46  H   UNL     1     -44.661  38.452  29.081  1.00  0.00     0.086 H 
BRANCH  43  47
ATOM     47  N   UNL     1     -45.866  39.620  26.916  1.00  0.00    -0.299 N 
ATOM     48  C   UNL     1     -44.686  40.124  26.397  1.00  0.00     0.021 A 
ATOM     49  C   UNL     1     -46.824  40.632  26.825  1.00  0.00     0.150 A 
ATOM     50  C   UNL     1     -44.887  41.419  25.964  1.00  0.00     0.033 A 
ATOM     51  H   UNL     1     -43.775  39.545  26.404  1.00  0.00     0.083 H 
ATOM     52  C   UNL     1     -46.253  41.741  26.202  1.00  0.00     0.071 A 
ATOM     53  N   UNL     1     -48.111  40.549  27.223  1.00  0.00    -0.218 NA
ATOM     54  C   UNL     1     -47.107  42.837  25.964  1.00  0.00     0.137 A 
ATOM     55  C   UNL     1     -48.812  41.661  26.982  1.00  0.00     0.120 A 
ATOM     56  N   UNL     1     -48.386  42.780  26.380  1.00  0.00    -0.219 NA
ATOM     57  H   UNL     1     -49.848  41.659  27.307  1.00  0.00     0.106 H 
BRANCH  50  58
ATOM     58  C   UNL     1     -43.868  42.298  25.382  1.00  0.00     0.095 A 
ATOM     59  C   UNL     1     -42.726  42.766  26.071  1.00  0.00    -0.016 A 
ATOM     60  N   UNL     1     -43.923  42.780  24.133  1.00  0.00    -0.173 NA
ATOM     61  C   UNL     1     -42.064  43.563  25.167  1.00  0.00     0.025 A 
ATOM     62  H   UNL     1     -42.418  42.551  27.084  1.00  0.00     0.066 H 
ATOM     63  N   UNL     1     -42.815  43.539  24.030  1.00  0.00    -0.275 N 
ATOM     64  H   UNL     1     -41.147  44.130  25.240  1.00  0.00     0.084 H 
BRANCH  63  65
ATOM     65  C   UNL     1     -42.535  44.223  22.790  1.00  0.00     0.030 C 
ATOM     66  H   UNL     1     -43.432  44.183  22.166  1.00  0.00     0.048 H 
ATOM     67  H   UNL     1     -41.701  43.715  22.298  1.00  0.00     0.048 H 
ATOM     68  H   UNL     1     -42.271  45.262  22.999  1.00  0.00     0.048 H 
ENDBRANCH  63  65
ENDBRANCH  50  58
BRANCH  54  69
ATOM     69  N   UNL     1     -46.722  43.997  25.308  1.00  0.00    -0.383 N 
ATOM     70  H   UNL     1     -47.524  44.523  24.946  1.00  0.00     0.158 HD
ATOM     71  H   UNL     1     -45.970  43.819  24.659  1.00  0.00     0.158 HD
ENDBRANCH  54  69
ENDBRANCH  43  47
ENDBRANCH  35  38
ENDBRANCH  34  35
ENDBRANCH   7  34
TORSDOF 14
ENDMDL
MODEL 2
REMARK VINA RESULT:      -8.7      2.059      3.631
REMARK SMILES CCc1cc(NCCOC)c2ncc(OCc3cncc(-n4cc(-c5ccn(C)n5)c5c(N)ncnc54)c3)cc2n1
REMARK SMILES IDX 3 1 4 2 5 3 11 4 12 5 13 6 14 7 39 8 40 9 41 10 2 14 1 17
REMARK SMILES IDX 6 21 7 23 8 26 9 29 10 30 15 34 16 35 17 38 18 39 38 40
REMARK SMILES IDX 19 41 21 43 20 45 22 47 23 48 37 49 24 50 31 52 36 53 32 54
REMARK SMILES IDX 35 55 34 56 25 58 26 59 30 60 27 61 28 63 29 65 33 69
REMARK H PARENT 4 11 13 12 39 13 2 15 2 16 1 18 1 19 1 20 6 22 7 24 7 25 8 27
REMARK H PARENT 8 28 10 31 10 32 10 33 16 36 16 37 18 42 38 44 20 46 23 51
REMARK H PARENT 35 57 26 62 27 64 29 66 29 67 29 68 33 70 33 71
REMARK Flexibility Score: inf
ROOT
ATOM      1  C   UNL     1     -48.771  27.509  24.902  1.00  0.00     0.043 A 
ATOM      2  C   UNL     1     -48.506  27.675  23.551  1.00  0.00    -0.015 A 
ATOM      3  C   UNL     1     -48.154  28.942  23.081  1.00  0.00     0.064 A 
ATOM      4  C   UNL     1     -48.038  30.018  23.976  1.00  0.00     0.112 A 
ATOM      5  N   UNL     1     -47.686  31.250  23.531  1.00  0.00    -0.249 NA
ATOM      6  C   UNL     1     -47.691  32.265  24.421  1.00  0.00     0.070 A 
ATOM      7  C   UNL     1     -48.034  32.113  25.753  1.00  0.00     0.140 A 
ATOM      8  C   UNL     1     -48.333  30.825  26.193  1.00  0.00     0.010 A 
ATOM      9  C   UNL     1     -48.356  29.750  25.320  1.00  0.00     0.095 A 
ATOM     10  N   UNL     1     -48.720  28.536  25.781  1.00  0.00    -0.251 NA
ATOM     11  H   UNL     1     -48.562  26.833  22.869  1.00  0.00     0.066 H 
ATOM     12  H   UNL     1     -47.426  33.222  23.989  1.00  0.00     0.088 H 
ATOM     13  H   UNL     1     -48.605  30.662  27.234  1.00  0.00     0.069 H 
ENDROOT
BRANCH   1  14
ATOM     14  C   UNL     1     -49.187  26.165  25.443  1.00  0.00    -0.013 C 
ATOM     15  H   UNL     1     -49.159  25.427  24.632  1.00  0.00     0.033 H 
ATOM     16  H   UNL     1     -50.225  26.208  25.791  1.00  0.00     0.033 H 
BRANCH  14  17
ATOM     17  C   UNL     1     -48.273  25.714  26.572  1.00  0.00    -0.060 C 
ATOM     18  H   UNL     1     -47.256  25.526  26.207  1.00  0.00     0.023 H 
ATOM     19  H   UNL     1     -48.211  26.470  27.361  1.00  0.00     0.023 H 
ATOM     20  H   UNL     1     -48.650  24.787  27.017  1.00  0.00     0.023 H 
ENDBRANCH  14  17
ENDBRANCH   1  14
BRANCH   3  21
ATOM     21  N   UNL     1     -47.922  29.151  21.688  1.00  0.00    -0.381 N 
ATOM     22  H   UNL     1     -47.075  29.738  21.623  1.00  0.00     0.160 HD
BRANCH  21  23
ATOM     23  C   UNL     1     -49.019  29.852  20.990  1.00  0.00     0.038 C 
ATOM     24  H   UNL     1     -48.637  30.510  20.202  1.00  0.00     0.051 H 
ATOM     25  H   UNL     1     -49.510  30.491  21.734  1.00  0.00     0.051 H 
BRANCH  23  26
ATOM     26  C   UNL     1     -50.057  28.875  20.416  1.00  0.00     0.063 C 
ATOM     27  H   UNL     1     -50.536  28.325  21.233  1.00  0.00     0.059 H 
ATOM     28  H   UNL     1     -50.832  29.415  19.859  1.00  0.00     0.059 H 
BRANCH  26  29
ATOM     29  O   UNL     1     -49.396  27.932  19.564  1.00  0.00    -0.383 OA
BRANCH  29  30
ATOM     30  C   UNL     1     -50.126  26.716  19.475  1.00  0.00     0.036 C 
ATOM     31  H   UNL     1     -50.501  26.428  20.461  1.00  0.00     0.053 H 
ATOM     32  H   UNL     1     -49.501  25.920  19.059  1.00  0.00     0.053 H 
ATOM     33  H   UNL     1     -50.980  26.874  18.813  1.00  0.00     0.053 H 
ENDBRANCH  29  30
ENDBRANCH  26  29
ENDBRANCH  23  26
ENDBRANCH  21  23
ENDBRANCH   3  21
BRANCH   7  34
ATOM     34  O   UNL     1     -48.180  33.098  26.689  1.00  0.00    -0.487 OA
BRANCH  34  35
ATOM     35  C   UNL     1     -47.073  33.967  26.951  1.00  0.00     0.115 C 
ATOM     36  H   UNL     1     -46.603  33.586  27.866  1.00  0.00     0.076 H 
ATOM     37  H   UNL     1     -46.325  33.869  26.153  1.00  0.00     0.076 H 
BRANCH  35  38
ATOM     38  C   UNL     1     -47.418  35.420  27.194  1.00  0.00     0.010 A 
ATOM     39  C   UNL     1     -48.695  35.751  27.630  1.00  0.00     0.034 A 
ATOM     40  C   UNL     1     -46.514  36.476  27.011  1.00  0.00    -0.028 A 
ATOM     41  N   UNL     1     -49.097  37.009  27.907  1.00  0.00    -0.262 NA
ATOM     42  H   UNL     1     -49.459  34.991  27.778  1.00  0.00     0.084 H 
ATOM     43  C   UNL     1     -46.869  37.787  27.340  1.00  0.00     0.066 A 
ATOM     44  H   UNL     1     -45.532  36.249  26.608  1.00  0.00     0.065 H 
ATOM     45  C   UNL     1     -48.176  37.994  27.768  1.00  0.00     0.051 A 
ATOM     46  H   UNL     1     -48.558  38.966  28.059  1.00  0.00     0.086 H 
BRANCH  43  47
ATOM     47  N   UNL     1     -45.929  38.866  27.296  1.00  0.00    -0.299 N 
ATOM     48  C   UNL     1     -45.914  39.867  26.339  1.00  0.00     0.021 A 
ATOM     49  C   UNL     1     -44.906  39.147  28.205  1.00  0.00     0.150 A 
ATOM     50  C   UNL     1     -44.922  40.778  26.638  1.00  0.00     0.033 A 
ATOM     51  H   UNL     1     -46.582  39.845  25.491  1.00  0.00     0.083 H 
ATOM     52  C   UNL     1     -44.295  40.347  27.842  1.00  0.00     0.071 A 
ATOM     53  N   UNL     1     -44.583  38.415  29.291  1.00  0.00    -0.218 NA
ATOM     54  C   UNL     1     -43.280  40.819  28.697  1.00  0.00     0.137 A 
ATOM     55  C   UNL     1     -43.581  38.941  30.003  1.00  0.00     0.120 A 
ATOM     56  N   UNL     1     -42.926  40.087  29.770  1.00  0.00    -0.219 NA
ATOM     57  H   UNL     1     -43.262  38.378  30.875  1.00  0.00     0.106 H 
BRANCH  50  58
ATOM     58  C   UNL     1     -44.574  41.961  25.844  1.00  0.00     0.095 A 
ATOM     59  C   UNL     1     -45.481  42.991  25.503  1.00  0.00    -0.016 A 
ATOM     60  N   UNL     1     -43.358  42.183  25.328  1.00  0.00    -0.173 NA
ATOM     61  C   UNL     1     -44.748  43.877  24.748  1.00  0.00     0.025 A 
ATOM     62  H   UNL     1     -46.523  43.084  25.771  1.00  0.00     0.066 H 
ATOM     63  N   UNL     1     -43.492  43.352  24.673  1.00  0.00    -0.275 N 
ATOM     64  H   UNL     1     -45.012  44.811  24.272  1.00  0.00     0.084 H 
BRANCH  63  65
ATOM     65  C   UNL     1     -42.355  43.918  23.989  1.00  0.00     0.030 C 
ATOM     66  H   UNL     1     -42.562  44.973  23.794  1.00  0.00     0.048 H 
ATOM     67  H   UNL     1     -42.212  43.374  23.051  1.00  0.00     0.048 H 
ATOM     68  H   UNL     1     -41.466  43.821  24.617  1.00  0.00     0.048 H 
ENDBRANCH  63  65
ENDBRANCH  50  58
BRANCH  54  69
ATOM     69  N   UNL     1     -42.605  42.018  28.520  1.00  0.00    -0.383 N 
ATOM     70  H   UNL     1     -42.738  42.403  27.579  1.00  0.00     0.158 HD
ATOM     71  H   UNL     1     -41.653  41.955  28.851  1.00  0.00     0.158 HD
ENDBRANCH  54  69
ENDBRANCH  43  47
ENDBRANCH  35  38
ENDBRANCH  34  35
ENDBRANCH   7  34
TORSDOF 14
ENDMDL
MODEL 3
REMARK VINA RESULT:      -8.6      1.941      2.877
REMARK SMILES CCc1cc(NCCOC)c2ncc(OCc3cncc(-n4cc(-c5ccn(C)n5)c5c(N)ncnc54)c3)cc2n1
REMARK SMILES IDX 3 1 4 2 5 3 11 4 12 5 13 6 14 7 39 8 40 9 41 10 2 14 1 17
REMARK SMILES IDX 6 21 7 23 8 26 9 29 10 30 15 34 16 35 17 38 18 39 38 40
REMARK SMILES IDX 19 41 21 43 20 45 22 47 23 48 37 49 24 50 31 52 36 53 32 54
REMARK SMILES IDX 35 55 34 56 25 58 26 59 30 60 27 61 28 63 29 65 33 69
REMARK H PARENT 4 11 13 12 39 13 2 15 2 16 1 18 1 19 1 20 6 22 7 24 7 25 8 27
REMARK H PARENT 8 28 10 31 10 32 10 33 16 36 16 37 18 42 38 44 20 46 23 51
REMARK H PARENT 35 57 26 62 27 64 29 66 29 67 29 68 33 70 33 71
REMARK Flexibility Score: inf
ROOT
ATOM      1  C   UNL     1     -46.386  30.891  22.180  1.00  0.00     0.043 A 
ATOM      2  C   UNL     1     -47.081  29.761  22.586  1.00  0.00    -0.015 A 
ATOM      3  C   UNL     1     -47.749  29.782  23.813  1.00  0.00     0.064 A 
ATOM      4  C   UNL     1     -47.743  30.946  24.599  1.00  0.00     0.112 A 
ATOM      5  N   UNL     1     -48.399  30.979  25.786  1.00  0.00    -0.249 NA
ATOM      6  C   UNL     1     -48.270  32.089  26.543  1.00  0.00     0.070 A 
ATOM      7  C   UNL     1     -47.511  33.185  26.173  1.00  0.00     0.140 A 
ATOM      8  C   UNL     1     -46.898  33.145  24.922  1.00  0.00     0.010 A 
ATOM      9  C   UNL     1     -46.986  32.026  24.110  1.00  0.00     0.095 A 
ATOM     10  N   UNL     1     -46.317  32.009  22.939  1.00  0.00    -0.251 NA
ATOM     11  H   UNL     1     -47.113  28.877  21.959  1.00  0.00     0.066 H 
ATOM     12  H   UNL     1     -48.798  32.033  27.488  1.00  0.00     0.088 H 
ATOM     13  H   UNL     1     -46.295  33.987  24.592  1.00  0.00     0.069 H 
ENDROOT
BRANCH   1  14
ATOM     14  C   UNL     1     -45.625  30.898  20.881  1.00  0.00    -0.013 C 
ATOM     15  H   UNL     1     -45.691  29.905  20.420  1.00  0.00     0.033 H 
ATOM     16  H   UNL     1     -44.562  31.084  21.071  1.00  0.00     0.033 H 
BRANCH  14  17
ATOM     17  C   UNL     1     -46.175  31.940  19.919  1.00  0.00    -0.060 C 
ATOM     18  H   UNL     1     -47.209  32.203  20.170  1.00  0.00     0.023 H 
ATOM     19  H   UNL     1     -45.580  32.859  19.946  1.00  0.00     0.023 H 
ATOM     20  H   UNL     1     -46.161  31.555  18.895  1.00  0.00     0.023 H 
ENDBRANCH  14  17
ENDBRANCH   1  14
BRANCH   3  21
ATOM     21  N   UNL     1     -48.432  28.618  24.276  1.00  0.00    -0.381 N 
ATOM     22  H   UNL     1     -48.776  28.844  25.223  1.00  0.00     0.160 HD
BRANCH  21  23
ATOM     23  C   UNL     1     -47.579  27.415  24.376  1.00  0.00     0.038 C 
ATOM     24  H   UNL     1     -46.532  27.680  24.552  1.00  0.00     0.051 H 
ATOM     25  H   UNL     1     -47.626  26.914  23.401  1.00  0.00     0.051 H 
BRANCH  23  26
ATOM     26  C   UNL     1     -48.076  26.441  25.456  1.00  0.00     0.063 C 
ATOM     27  H   UNL     1     -48.645  26.992  26.213  1.00  0.00     0.059 H 
ATOM     28  H   UNL     1     -48.728  25.677  25.018  1.00  0.00     0.059 H 
BRANCH  26  29
ATOM     29  O   UNL     1     -46.948  25.830  26.094  1.00  0.00    -0.383 OA
BRANCH  29  30
ATOM     30  C   UNL     1     -47.345  24.731  26.903  1.00  0.00     0.036 C 
ATOM     31  H   UNL     1     -47.448  23.830  26.292  1.00  0.00     0.053 H 
ATOM     32  H   UNL     1     -48.285  24.951  27.418  1.00  0.00     0.053 H 
ATOM     33  H   UNL     1     -46.568  24.555  27.650  1.00  0.00     0.053 H 
ENDBRANCH  29  30
ENDBRANCH  26  29
ENDBRANCH  23  26
ENDBRANCH  21  23
ENDBRANCH   3  21
BRANCH   7  34
ATOM     34  O   UNL     1     -47.232  34.292  26.924  1.00  0.00    -0.487 OA
BRANCH  34  35
ATOM     35  C   UNL     1     -46.889  35.510  26.253  1.00  0.00     0.115 C 
ATOM     36  H   UNL     1     -45.919  35.325  25.775  1.00  0.00     0.076 H 
ATOM     37  H   UNL     1     -47.603  35.702  25.443  1.00  0.00     0.076 H 
BRANCH  35  38
ATOM     38  C   UNL     1     -46.730  36.727  27.136  1.00  0.00     0.010 A 
ATOM     39  C   UNL     1     -46.919  36.602  28.507  1.00  0.00     0.034 A 
ATOM     40  C   UNL     1     -46.391  38.000  26.654  1.00  0.00    -0.028 A 
ATOM     41  N   UNL     1     -46.771  37.614  29.387  1.00  0.00    -0.262 NA
ATOM     42  H   UNL     1     -47.201  35.652  28.957  1.00  0.00     0.084 H 
ATOM     43  C   UNL     1     -46.171  39.063  27.534  1.00  0.00     0.066 A 
ATOM     44  H   UNL     1     -46.303  38.137  25.582  1.00  0.00     0.065 H 
ATOM     45  C   UNL     1     -46.390  38.814  28.885  1.00  0.00     0.051 A 
ATOM     46  H   UNL     1     -46.241  39.561  29.658  1.00  0.00     0.086 H 
BRANCH  43  47
ATOM     47  N   UNL     1     -45.691  40.336  27.089  1.00  0.00    -0.299 N 
ATOM     48  C   UNL     1     -46.391  41.205  26.269  1.00  0.00     0.021 A 
ATOM     49  C   UNL     1     -44.486  40.959  27.420  1.00  0.00     0.150 A 
ATOM     50  C   UNL     1     -45.663  42.364  26.096  1.00  0.00     0.033 A 
ATOM     51  H   UNL     1     -47.339  40.928  25.833  1.00  0.00     0.083 H 
ATOM     52  C   UNL     1     -44.463  42.232  26.850  1.00  0.00     0.071 A 
ATOM     53  N   UNL     1     -43.514  40.448  28.204  1.00  0.00    -0.218 NA
ATOM     54  C   UNL     1     -43.341  43.031  27.145  1.00  0.00     0.137 A 
ATOM     55  C   UNL     1     -42.484  41.281  28.379  1.00  0.00     0.120 A 
ATOM     56  N   UNL     1     -42.349  42.526  27.902  1.00  0.00    -0.219 NA
ATOM     57  H   UNL     1     -41.660  40.910  28.981  1.00  0.00     0.106 H 
BRANCH  50  58
ATOM     58  C   UNL     1     -46.056  43.510  25.269  1.00  0.00     0.095 A 
ATOM     59  C   UNL     1     -47.320  44.141  25.324  1.00  0.00    -0.016 A 
ATOM     60  N   UNL     1     -45.265  44.070  24.344  1.00  0.00    -0.173 NA
ATOM     61  C   UNL     1     -47.263  45.140  24.381  1.00  0.00     0.025 A 
ATOM     62  H   UNL     1     -48.159  43.910  25.965  1.00  0.00     0.066 H 
ATOM     63  N   UNL     1     -46.021  45.057  23.826  1.00  0.00    -0.275 N 
ATOM     64  H   UNL     1     -47.985  45.881  24.069  1.00  0.00     0.084 H 
BRANCH  63  65
ATOM     65  C   UNL     1     -45.477  45.896  22.785  1.00  0.00     0.030 C 
ATOM     66  H   UNL     1     -44.434  46.113  23.029  1.00  0.00     0.048 H 
ATOM     67  H   UNL     1     -46.063  46.818  22.745  1.00  0.00     0.048 H 
ATOM     68  H   UNL     1     -45.537  45.373  21.827  1.00  0.00     0.048 H 
ENDBRANCH  63  65
ENDBRANCH  50  58
BRANCH  54  69
ATOM     69  N   UNL     1     -43.179  44.338  26.709  1.00  0.00    -0.383 N 
ATOM     70  H   UNL     1     -44.015  44.697  26.237  1.00  0.00     0.158 HD
ATOM     71  H   UNL     1     -42.301  44.457  26.222  1.00  0.00     0.158 HD
ENDBRANCH  54  69
ENDBRANCH  43  47
ENDBRANCH  35  38
ENDBRANCH  34  35
ENDBRANCH   7  34
TORSDOF 14
ENDMDL
MODEL 4
REMARK VINA RESULT:      -8.2      1.694      2.252
REMARK SMILES CCc1cc(NCCOC)c2ncc(OCc3cncc(-n4cc(-c5ccn(C)n5)c5c(N)ncnc54)c3)cc2n1
REMARK SMILES IDX 3 1 4 2 5 3 11 4 12 5 13 6 14 7 39 8 40 9 41 10 2 14 1 17
REMARK SMILES IDX 6 21 7 23 8 26 9 29 10 30 15 34 16 35 17 38 18 39 38 40
REMARK SMILES IDX 19 41 21 43 20 45 22 47 23 48 37 49 24 50 31 52 36 53 32 54
REMARK SMILES IDX 35 55 34 56 25 58 26 59 30 60 27 61 28 63 29 65 33 69
REMARK H PARENT 4 11 13 12 39 13 2 15 2 16 1 18 1 19 1 20 6 22 7 24 7 25 8 27
REMARK H PARENT 8 28 10 31 10 32 10 33 16 36 16 37 18 42 38 44 20 46 23 51
REMARK H PARENT 35 57 26 62 27 64 29 66 29 67 29 68 33 70 33 71
REMARK Flexibility Score: inf
ROOT
ATOM      1  C   UNL     1     -46.400  31.211  22.934  1.00  0.00     0.043 A 
ATOM      2  C   UNL     1     -47.444  30.408  23.367  1.00  0.00    -0.015 A 
ATOM      3  C   UNL     1     -48.195  30.814  24.472  1.00  0.00     0.064 A 
ATOM      4  C   UNL     1     -47.915  32.035  25.106  1.00  0.00     0.112 A 
ATOM      5  N   UNL     1     -48.647  32.443  26.172  1.00  0.00    -0.249 NA
ATOM      6  C   UNL     1     -48.264  33.574  26.801  1.00  0.00     0.070 A 
ATOM      7  C   UNL     1     -47.173  34.333  26.416  1.00  0.00     0.140 A 
ATOM      8  C   UNL     1     -46.477  33.921  25.281  1.00  0.00     0.010 A 
ATOM      9  C   UNL     1     -46.818  32.761  24.605  1.00  0.00     0.095 A 
ATOM     10  N   UNL     1     -46.070  32.367  23.554  1.00  0.00    -0.251 NA
ATOM     11  H   UNL     1     -47.680  29.483  22.853  1.00  0.00     0.066 H 
ATOM     12  H   UNL     1     -48.878  33.822  27.659  1.00  0.00     0.088 H 
ATOM     13  H   UNL     1     -45.614  34.491  24.943  1.00  0.00     0.069 H 
ENDROOT
BRANCH   1  14
ATOM     14  C   UNL     1     -45.543  30.793  21.767  1.00  0.00    -0.013 C 
ATOM     15  H   UNL     1     -45.603  29.704  21.649  1.00  0.00     0.033 H 
ATOM     16  H   UNL     1     -44.492  31.028  21.971  1.00  0.00     0.033 H 
BRANCH  14  17
ATOM     17  C   UNL     1     -45.990  31.468  20.479  1.00  0.00    -0.060 C 
ATOM     18  H   UNL     1     -47.008  31.864  20.572  1.00  0.00     0.023 H 
ATOM     19  H   UNL     1     -45.330  32.301  20.216  1.00  0.00     0.023 H 
ATOM     20  H   UNL     1     -45.979  30.751  19.652  1.00  0.00     0.023 H 
ENDBRANCH  14  17
ENDBRANCH   1  14
BRANCH   3  21
ATOM     21  N   UNL     1     -49.245  29.983  24.968  1.00  0.00    -0.381 N 
ATOM     22  H   UNL     1     -49.792  30.569  25.619  1.00  0.00     0.160 HD
BRANCH  21  23
ATOM     23  C   UNL     1     -48.778  28.793  25.708  1.00  0.00     0.038 C 
ATOM     24  H   UNL     1     -49.359  28.636  26.623  1.00  0.00     0.051 H 
ATOM     25  H   UNL     1     -47.745  28.997  26.014  1.00  0.00     0.051 H 
BRANCH  23  26
ATOM     26  C   UNL     1     -48.795  27.527  24.838  1.00  0.00     0.063 C 
ATOM     27  H   UNL     1     -49.714  26.962  25.029  1.00  0.00     0.059 H 
ATOM     28  H   UNL     1     -48.762  27.787  23.774  1.00  0.00     0.059 H 
BRANCH  26  29
ATOM     29  O   UNL     1     -47.677  26.701  25.185  1.00  0.00    -0.383 OA
BRANCH  29  30
ATOM     30  C   UNL     1     -46.531  27.032  24.412  1.00  0.00     0.036 C 
ATOM     31  H   UNL     1     -46.304  28.097  24.510  1.00  0.00     0.053 H 
ATOM     32  H   UNL     1     -46.685  26.771  23.361  1.00  0.00     0.053 H 
ATOM     33  H   UNL     1     -45.681  26.461  24.795  1.00  0.00     0.053 H 
ENDBRANCH  29  30
ENDBRANCH  26  29
ENDBRANCH  23  26
ENDBRANCH  21  23
ENDBRANCH   3  21
BRANCH   7  34
ATOM     34  O   UNL     1     -46.648  35.416  27.061  1.00  0.00    -0.487 OA
BRANCH  34  35
ATOM     35  C   UNL     1     -47.254  36.698  26.858  1.00  0.00     0.115 C 
ATOM     36  H   UNL     1     -47.456  36.766  25.782  1.00  0.00     0.076 H 
ATOM     37  H   UNL     1     -48.229  36.732  27.360  1.00  0.00     0.076 H 
BRANCH  35  38
ATOM     38  C   UNL     1     -46.408  37.894  27.233  1.00  0.00     0.010 A 
ATOM     39  C   UNL     1     -45.516  37.790  28.294  1.00  0.00     0.034 A 
ATOM     40  C   UNL     1     -46.462  39.126  26.565  1.00  0.00    -0.028 A 
ATOM     41  N   UNL     1     -44.693  38.783  28.690  1.00  0.00    -0.262 NA
ATOM     42  H   UNL     1     -45.428  36.874  28.874  1.00  0.00     0.084 H 
ATOM     43  C   UNL     1     -45.588  40.163  26.905  1.00  0.00     0.066 A 
ATOM     44  H   UNL     1     -47.197  39.253  25.778  1.00  0.00     0.065 H 
ATOM     45  C   UNL     1     -44.739  39.939  27.983  1.00  0.00     0.051 A 
ATOM     46  H   UNL     1     -44.013  40.668  28.328  1.00  0.00     0.086 H 
BRANCH  43  47
ATOM     47  N   UNL     1     -45.521  41.381  26.155  1.00  0.00    -0.299 N 
ATOM     48  C   UNL     1     -44.565  41.671  25.197  1.00  0.00     0.021 A 
ATOM     49  C   UNL     1     -46.404  42.463  26.200  1.00  0.00     0.150 A 
ATOM     50  C   UNL     1     -44.839  42.897  24.627  1.00  0.00     0.033 A 
ATOM     51  H   UNL     1     -43.735  41.006  25.011  1.00  0.00     0.083 H 
ATOM     52  C   UNL     1     -46.025  43.396  25.235  1.00  0.00     0.071 A 
ATOM     53  N   UNL     1     -47.480  42.579  27.005  1.00  0.00    -0.218 NA
ATOM     54  C   UNL     1     -46.855  44.526  25.095  1.00  0.00     0.137 A 
ATOM     55  C   UNL     1     -48.167  43.709  26.809  1.00  0.00     0.120 A 
ATOM     56  N   UNL     1     -47.918  44.671  25.909  1.00  0.00    -0.219 NA
ATOM     57  H   UNL     1     -49.030  43.867  27.448  1.00  0.00     0.106 H 
BRANCH  50  58
ATOM     58  C   UNL     1     -44.037  43.563  23.596  1.00  0.00     0.095 A 
ATOM     59  C   UNL     1     -42.624  43.611  23.586  1.00  0.00    -0.016 A 
ATOM     60  N   UNL     1     -44.559  44.228  22.556  1.00  0.00    -0.173 NA
ATOM     61  C   UNL     1     -42.298  44.339  22.466  1.00  0.00     0.025 A 
ATOM     62  H   UNL     1     -41.933  43.172  24.291  1.00  0.00     0.066 H 
ATOM     63  N   UNL     1     -43.483  44.684  21.888  1.00  0.00    -0.275 N 
ATOM     64  H   UNL     1     -41.345  44.633  22.048  1.00  0.00     0.084 H 
BRANCH  63  65
ATOM     65  C   UNL     1     -43.669  45.453  20.681  1.00  0.00     0.030 C 
ATOM     66  H   UNL     1     -44.738  45.648  20.560  1.00  0.00     0.048 H 
ATOM     67  H   UNL     1     -43.286  44.871  19.839  1.00  0.00     0.048 H 
ATOM     68  H   UNL     1     -43.123  46.396  20.763  1.00  0.00     0.048 H 
ENDBRANCH  63  65
ENDBRANCH  50  58
BRANCH  54  69
ATOM     69  N   UNL     1     -46.660  45.524  24.152  1.00  0.00    -0.383 N 
ATOM     70  H   UNL     1     -45.688  45.571  23.831  1.00  0.00     0.158 HD
ATOM     71  H   UNL     1     -47.081  46.394  24.446  1.00  0.00     0.158 HD
ENDBRANCH  54  69
ENDBRANCH  43  47
ENDBRANCH  35  38
ENDBRANCH  34  35
ENDBRANCH   7  34
TORSDOF 14
ENDMDL
MODEL 5
REMARK VINA RESULT:      -7.8      1.595      2.778
REMARK SMILES CCc1cc(NCCOC)c2ncc(OCc3cncc(-n4cc(-c5ccn(C)n5)c5c(N)ncnc54)c3)cc2n1
REMARK SMILES IDX 3 1 4 2 5 3 11 4 12 5 13 6 14 7 39 8 40 9 41 10 2 14 1 17
REMARK SMILES IDX 6 21 7 23 8 26 9 29 10 30 15 34 16 35 17 38 18 39 38 40
REMARK SMILES IDX 19 41 21 43 20 45 22 47 23 48 37 49 24 50 31 52 36 53 32 54
REMARK SMILES IDX 35 55 34 56 25 58 26 59 30 60 27 61 28 63 29 65 33 69
REMARK H PARENT 4 11 13 12 39 13 2 15 2 16 1 18 1 19 1 20 6 22 7 24 7 25 8 27
REMARK H PARENT 8 28 10 31 10 32 10 33 16 36 16 37 18 42 38 44 20 46 23 51
REMARK H PARENT 35 57 26 62 27 64 29 66 29 67 29 68 33 70 33 71
REMARK Flexibility Score: inf
ROOT
ATOM      1  C   UNL     1     -48.981  29.122  24.505  1.00  0.00     0.043 A 
ATOM      2  C   UNL     1     -48.576  29.465  23.224  1.00  0.00    -0.015 A 
ATOM      3  C   UNL     1     -47.807  30.617  23.043  1.00  0.00     0.064 A 
ATOM      4  C   UNL     1     -47.426  31.391  24.151  1.00  0.00     0.112 A 
ATOM      5  N   UNL     1     -46.670  32.505  23.986  1.00  0.00    -0.249 NA
ATOM      6  C   UNL     1     -46.422  33.263  25.076  1.00  0.00     0.070 A 
ATOM      7  C   UNL     1     -46.895  32.962  26.341  1.00  0.00     0.140 A 
ATOM      8  C   UNL     1     -47.618  31.780  26.489  1.00  0.00     0.010 A 
ATOM      9  C   UNL     1     -47.913  30.972  25.403  1.00  0.00     0.095 A 
ATOM     10  N   UNL     1     -48.675  29.875  25.587  1.00  0.00    -0.251 NA
ATOM     11  H   UNL     1     -48.843  28.844  22.376  1.00  0.00     0.066 H 
ATOM     12  H   UNL     1     -45.836  34.149  24.863  1.00  0.00     0.088 H 
ATOM     13  H   UNL     1     -48.005  31.506  27.468  1.00  0.00     0.069 H 
ENDROOT
BRANCH   1  14
ATOM     14  C   UNL     1     -49.839  27.906  24.739  1.00  0.00    -0.013 C 
ATOM     15  H   UNL     1     -50.766  28.211  25.241  1.00  0.00     0.033 H 
ATOM     16  H   UNL     1     -49.329  27.214  25.419  1.00  0.00     0.033 H 
BRANCH  14  17
ATOM     17  C   UNL     1     -50.177  27.204  23.433  1.00  0.00    -0.060 C 
ATOM     18  H   UNL     1     -50.588  27.908  22.700  1.00  0.00     0.023 H 
ATOM     19  H   UNL     1     -49.290  26.740  22.989  1.00  0.00     0.023 H 
ATOM     20  H   UNL     1     -50.922  26.421  23.605  1.00  0.00     0.023 H 
ENDBRANCH  14  17
ENDBRANCH   1  14
BRANCH   3  21
ATOM     21  N   UNL     1     -47.417  31.018  21.730  1.00  0.00    -0.381 N 
ATOM     22  H   UNL     1     -47.600  32.033  21.674  1.00  0.00     0.160 HD
BRANCH  21  23
ATOM     23  C   UNL     1     -48.170  30.357  20.645  1.00  0.00     0.038 C 
ATOM     24  H   UNL     1     -48.806  29.554  21.031  1.00  0.00     0.051 H 
ATOM     25  H   UNL     1     -47.428  29.892  19.984  1.00  0.00     0.051 H 
BRANCH  23  26
ATOM     26  C   UNL     1     -49.004  31.355  19.827  1.00  0.00     0.063 C 
ATOM     27  H   UNL     1     -49.210  32.245  20.433  1.00  0.00     0.059 H 
ATOM     28  H   UNL     1     -48.462  31.666  18.926  1.00  0.00     0.059 H 
BRANCH  26  29
ATOM     29  O   UNL     1     -50.253  30.749  19.475  1.00  0.00    -0.383 OA
BRANCH  29  30
ATOM     30  C   UNL     1     -50.288  29.380  19.855  1.00  0.00     0.036 C 
ATOM     31  H   UNL     1     -49.377  28.872  19.524  1.00  0.00     0.053 H 
ATOM     32  H   UNL     1     -51.171  28.886  19.439  1.00  0.00     0.053 H 
ATOM     33  H   UNL     1     -50.335  29.326  20.946  1.00  0.00     0.053 H 
ENDBRANCH  29  30
ENDBRANCH  26  29
ENDBRANCH  23  26
ENDBRANCH  21  23
ENDBRANCH   3  21
BRANCH   7  34
ATOM     34  O   UNL     1     -46.793  33.728  27.467  1.00  0.00    -0.487 OA
BRANCH  34  35
ATOM     35  C   UNL     1     -46.059  34.956  27.400  1.00  0.00     0.115 C 
ATOM     36  H   UNL     1     -45.397  34.957  28.275  1.00  0.00     0.076 H 
ATOM     37  H   UNL     1     -45.407  34.952  26.517  1.00  0.00     0.076 H 
BRANCH  35  38
ATOM     38  C   UNL     1     -46.883  36.222  27.459  1.00  0.00     0.010 A 
ATOM     39  C   UNL     1     -48.153  36.182  28.023  1.00  0.00     0.034 A 
ATOM     40  C   UNL     1     -46.441  37.463  26.977  1.00  0.00    -0.028 A 
ATOM     41  N   UNL     1     -48.957  37.257  28.155  1.00  0.00    -0.262 NA
ATOM     42  H   UNL     1     -48.575  35.254  28.403  1.00  0.00     0.084 H 
ATOM     43  C   UNL     1     -47.217  38.613  27.144  1.00  0.00     0.066 A 
ATOM     44  H   UNL     1     -45.481  37.506  26.473  1.00  0.00     0.065 H 
ATOM     45  C   UNL     1     -48.469  38.446  27.725  1.00  0.00     0.051 A 
ATOM     46  H   UNL     1     -49.151  39.269  27.913  1.00  0.00     0.086 H 
BRANCH  43  47
ATOM     47  N   UNL     1     -46.738  39.915  26.790  1.00  0.00    -0.299 N 
ATOM     48  C   UNL     1     -45.448  40.200  26.376  1.00  0.00     0.021 A 
ATOM     49  C   UNL     1     -47.461  41.109  26.742  1.00  0.00     0.150 A 
ATOM     50  C   UNL     1     -45.351  41.538  26.051  1.00  0.00     0.033 A 
ATOM     51  H   UNL     1     -44.676  39.445  26.376  1.00  0.00     0.083 H 
ATOM     52  C   UNL     1     -46.635  42.119  26.250  1.00  0.00     0.071 A 
ATOM     53  N   UNL     1     -48.761  41.266  27.068  1.00  0.00    -0.218 NA
ATOM     54  C   UNL     1     -47.230  43.384  26.069  1.00  0.00     0.137 A 
ATOM     55  C   UNL     1     -49.202  42.516  26.893  1.00  0.00     0.120 A 
ATOM     56  N   UNL     1     -48.518  43.564  26.415  1.00  0.00    -0.219 NA
ATOM     57  H   UNL     1     -50.236  42.705  27.165  1.00  0.00     0.106 H 
BRANCH  50  58
ATOM     58  C   UNL     1     -44.138  42.227  25.601  1.00  0.00     0.095 A 
ATOM     59  C   UNL     1     -43.064  42.593  26.445  1.00  0.00    -0.016 A 
ATOM     60  N   UNL     1     -43.924  42.613  24.336  1.00  0.00    -0.173 NA
ATOM     61  C   UNL     1     -42.160  43.223  25.622  1.00  0.00     0.025 A 
ATOM     62  H   UNL     1     -42.955  42.419  27.506  1.00  0.00     0.066 H 
ATOM     63  N   UNL     1     -42.717  43.209  24.378  1.00  0.00    -0.275 N 
ATOM     64  H   UNL     1     -41.195  43.668  25.817  1.00  0.00     0.084 H 
BRANCH  63  65
ATOM     65  C   UNL     1     -42.149  43.751  23.167  1.00  0.00     0.030 C 
ATOM     66  H   UNL     1     -42.897  44.392  22.694  1.00  0.00     0.048 H 
ATOM     67  H   UNL     1     -41.884  42.919  22.510  1.00  0.00     0.048 H 
ATOM     68  H   UNL     1     -41.258  44.334  23.412  1.00  0.00     0.048 H 
ENDBRANCH  63  65
ENDBRANCH  50  58
BRANCH  54  69
ATOM     69  N   UNL     1     -46.574  44.485  25.539  1.00  0.00    -0.383 N 
ATOM     70  H   UNL     1     -45.558  44.351  25.500  1.00  0.00     0.158 HD
ATOM     71  H   UNL     1     -46.899  45.344  25.961  1.00  0.00     0.158 HD
ENDBRANCH  54  69
ENDBRANCH  43  47
ENDBRANCH  35  38
ENDBRANCH  34  35
ENDBRANCH   7  34
TORSDOF 14
ENDMDL
MODEL 6
REMARK VINA RESULT:      -7.8      1.936      3.050
REMARK SMILES CCc1cc(NCCOC)c2ncc(OCc3cncc(-n4cc(-c5ccn(C)n5)c5c(N)ncnc54)c3)cc2n1
REMARK SMILES IDX 3 1 4 2 5 3 11 4 12 5 13 6 14 7 39 8 40 9 41 10 2 14 1 17
REMARK SMILES IDX 6 21 7 23 8 26 9 29 10 30 15 34 16 35 17 38 18 39 38 40
REMARK SMILES IDX 19 41 21 43 20 45 22 47 23 48 37 49 24 50 31 52 36 53 32 54
REMARK SMILES IDX 35 55 34 56 25 58 26 59 30 60 27 61 28 63 29 65 33 69
REMARK H PARENT 4 11 13 12 39 13 2 15 2 16 1 18 1 19 1 20 6 22 7 24 7 25 8 27
REMARK H PARENT 8 28 10 31 10 32 10 33 16 36 16 37 18 42 38 44 20 46 23 51
REMARK H PARENT 35 57 26 62 27 64 29 66 29 67 29 68 33 70 33 71
REMARK Flexibility Score: inf
ROOT
ATOM      1  C   UNL     1     -46.386  30.353  22.868  1.00  0.00     0.043 A 
ATOM      2  C   UNL     1     -47.541  29.603  23.028  1.00  0.00    -0.015 A 
ATOM      3  C   UNL     1     -48.522  30.053  23.915  1.00  0.00     0.064 A 
ATOM      4  C   UNL     1     -48.349  31.266  24.602  1.00  0.00     0.112 A 
ATOM      5  N   UNL     1     -49.301  31.716  25.455  1.00  0.00    -0.249 NA
ATOM      6  C   UNL     1     -49.032  32.834  26.163  1.00  0.00     0.070 A 
ATOM      7  C   UNL     1     -47.845  33.537  26.061  1.00  0.00     0.140 A 
ATOM      8  C   UNL     1     -46.911  33.084  25.132  1.00  0.00     0.010 A 
ATOM      9  C   UNL     1     -47.130  31.935  24.389  1.00  0.00     0.095 A 
ATOM     10  N   UNL     1     -46.165  31.498  23.554  1.00  0.00    -0.251 NA
ATOM     11  H   UNL     1     -47.686  28.686  22.469  1.00  0.00     0.066 H 
ATOM     12  H   UNL     1     -49.826  33.118  26.844  1.00  0.00     0.088 H 
ATOM     13  H   UNL     1     -45.966  33.610  25.019  1.00  0.00     0.069 H 
ENDROOT
BRANCH   1  14
ATOM     14  C   UNL     1     -45.289  29.886  21.947  1.00  0.00    -0.013 C 
ATOM     15  H   UNL     1     -44.569  30.700  21.803  1.00  0.00     0.033 H 
ATOM     16  H   UNL     1     -45.703  29.657  20.958  1.00  0.00     0.033 H 
BRANCH  14  17
ATOM     17  C   UNL     1     -44.572  28.668  22.509  1.00  0.00    -0.060 C 
ATOM     18  H   UNL     1     -45.131  27.748  22.301  1.00  0.00     0.023 H 
ATOM     19  H   UNL     1     -43.573  28.557  22.073  1.00  0.00     0.023 H 
ATOM     20  H   UNL     1     -44.462  28.760  23.594  1.00  0.00     0.023 H 
ENDBRANCH  14  17
ENDBRANCH   1  14
BRANCH   3  21
ATOM     21  N   UNL     1     -49.699  29.277  24.134  1.00  0.00    -0.381 N 
ATOM     22  H   UNL     1     -49.375  28.336  24.411  1.00  0.00     0.160 HD
BRANCH  21  23
ATOM     23  C   UNL     1     -50.561  29.131  22.943  1.00  0.00     0.038 C 
ATOM     24  H   UNL     1     -51.181  28.231  23.005  1.00  0.00     0.051 H 
ATOM     25  H   UNL     1     -49.891  29.003  22.084  1.00  0.00     0.051 H 
BRANCH  23  26
ATOM     26  C   UNL     1     -51.437  30.371  22.707  1.00  0.00     0.063 C 
ATOM     27  H   UNL     1     -52.422  30.216  23.159  1.00  0.00     0.059 H 
ATOM     28  H   UNL     1     -50.982  31.259  23.161  1.00  0.00     0.059 H 
BRANCH  26  29
ATOM     29  O   UNL     1     -51.611  30.564  21.298  1.00  0.00    -0.383 OA
BRANCH  29  30
ATOM     30  C   UNL     1     -50.409  31.011  20.685  1.00  0.00     0.036 C 
ATOM     31  H   UNL     1     -50.517  32.048  20.355  1.00  0.00     0.053 H 
ATOM     32  H   UNL     1     -50.144  30.369  19.839  1.00  0.00     0.053 H 
ATOM     33  H   UNL     1     -49.607  30.966  21.426  1.00  0.00     0.053 H 
ENDBRANCH  29  30
ENDBRANCH  26  29
ENDBRANCH  23  26
ENDBRANCH  21  23
ENDBRANCH   3  21
BRANCH   7  34
ATOM     34  O   UNL     1     -47.445  34.601  26.819  1.00  0.00    -0.487 OA
BRANCH  34  35
ATOM     35  C   UNL     1     -46.889  35.745  26.160  1.00  0.00     0.115 C 
ATOM     36  H   UNL     1     -45.913  35.424  25.776  1.00  0.00     0.076 H 
ATOM     37  H   UNL     1     -47.498  36.002  25.284  1.00  0.00     0.076 H 
BRANCH  35  38
ATOM     38  C   UNL     1     -46.653  36.959  27.031  1.00  0.00     0.010 A 
ATOM     39  C   UNL     1     -46.653  36.813  28.413  1.00  0.00     0.034 A 
ATOM     40  C   UNL     1     -46.423  38.247  26.527  1.00  0.00    -0.028 A 
ATOM     41  N   UNL     1     -46.421  37.821  29.280  1.00  0.00    -0.262 NA
ATOM     42  H   UNL     1     -46.841  35.850  28.883  1.00  0.00     0.084 H 
ATOM     43  C   UNL     1     -46.122  39.308  27.385  1.00  0.00     0.066 A 
ATOM     44  H   UNL     1     -46.484  38.397  25.454  1.00  0.00     0.065 H 
ATOM     45  C   UNL     1     -46.150  39.039  28.749  1.00  0.00     0.051 A 
ATOM     46  H   UNL     1     -45.923  39.783  29.505  1.00  0.00     0.086 H 
BRANCH  43  47
ATOM     47  N   UNL     1     -45.748  40.601  26.897  1.00  0.00    -0.299 N 
ATOM     48  C   UNL     1     -46.612  41.508  26.309  1.00  0.00     0.021 A 
ATOM     49  C   UNL     1     -44.491  41.208  26.960  1.00  0.00     0.150 A 
ATOM     50  C   UNL     1     -45.934  42.675  26.022  1.00  0.00     0.033 A 
ATOM     51  H   UNL     1     -47.640  41.252  26.100  1.00  0.00     0.083 H 
ATOM     52  C   UNL     1     -44.590  42.506  26.461  1.00  0.00     0.071 A 
ATOM     53  N   UNL     1     -43.367  40.660  27.464  1.00  0.00    -0.218 NA
ATOM     54  C   UNL     1     -43.421  43.291  26.515  1.00  0.00     0.137 A 
ATOM     55  C   UNL     1     -42.314  41.483  27.427  1.00  0.00     0.120 A 
ATOM     56  N   UNL     1     -42.283  42.750  26.990  1.00  0.00    -0.219 NA
ATOM     57  H   UNL     1     -41.375  41.083  27.796  1.00  0.00     0.106 H 
BRANCH  50  58
ATOM     58  C   UNL     1     -46.500  43.859  25.367  1.00  0.00     0.095 A 
ATOM     59  C   UNL     1     -47.841  44.284  25.503  1.00  0.00    -0.016 A 
ATOM     60  N   UNL     1     -45.811  44.656  24.541  1.00  0.00    -0.173 NA
ATOM     61  C   UNL     1     -47.942  45.408  24.716  1.00  0.00     0.025 A 
ATOM     62  H   UNL     1     -48.629  43.843  26.096  1.00  0.00     0.066 H 
ATOM     63  N   UNL     1     -46.708  45.587  24.165  1.00  0.00    -0.275 N 
ATOM     64  H   UNL     1     -48.768  46.073  24.509  1.00  0.00     0.084 H 
BRANCH  63  65
ATOM     65  C   UNL     1     -46.306  46.639  23.262  1.00  0.00     0.030 C 
ATOM     66  H   UNL     1     -45.678  46.200  22.482  1.00  0.00     0.048 H 
ATOM     67  H   UNL     1     -45.746  47.386  23.831  1.00  0.00     0.048 H 
ATOM     68  H   UNL     1     -47.193  47.095  22.816  1.00  0.00     0.048 H 
ENDBRANCH  63  65
ENDBRANCH  50  58
BRANCH  54  69
ATOM     69  N   UNL     1     -43.353  44.617  26.115  1.00  0.00    -0.383 N 
ATOM     70  H   UNL     1     -43.046  45.236  26.871  1.00  0.00     0.158 HD
ATOM     71  H   UNL     1     -44.187  44.893  25.617  1.00  0.00     0.158 HD
ENDBRANCH  54  69
ENDBRANCH  43  47
ENDBRANCH  35  38
ENDBRANCH  34  35
ENDBRANCH   7  34
TORSDOF 14
ENDMDL
MODEL 7
REMARK VINA RESULT:      -7.7      2.734     12.308
REMARK SMILES CCc1cc(NCCOC)c2ncc(OCc3cncc(-n4cc(-c5ccn(C)n5)c5c(N)ncnc54)c3)cc2n1
REMARK SMILES IDX 3 1 4 2 5 3 11 4 12 5 13 6 14 7 39 8 40 9 41 10 2 14 1 17
REMARK SMILES IDX 6 21 7 23 8 26 9 29 10 30 15 34 16 35 17 38 18 39 38 40
REMARK SMILES IDX 19 41 21 43 20 45 22 47 23 48 37 49 24 50 31 52 36 53 32 54
REMARK SMILES IDX 35 55 34 56 25 58 26 59 30 60 27 61 28 63 29 65 33 69
REMARK H PARENT 4 11 13 12 39 13 2 15 2 16 1 18 1 19 1 20 6 22 7 24 7 25 8 27
REMARK H PARENT 8 28 10 31 10 32 10 33 16 36 16 37 18 42 38 44 20 46 23 51
REMARK H PARENT 35 57 26 62 27 64 29 66 29 67 29 68 33 70 33 71
REMARK Flexibility Score: inf
ROOT
ATOM      1  C   UNL     1     -42.832  41.367  28.113  1.00  0.00     0.043 A 
ATOM      2  C   UNL     1     -43.355  42.536  27.580  1.00  0.00    -0.015 A 
ATOM      3  C   UNL     1     -44.573  42.482  26.900  1.00  0.00     0.064 A 
ATOM      4  C   UNL     1     -45.269  41.267  26.793  1.00  0.00     0.112 A 
ATOM      5  N   UNL     1     -46.459  41.209  26.145  1.00  0.00    -0.249 NA
ATOM      6  C   UNL     1     -47.028  39.994  25.986  1.00  0.00     0.070 A 
ATOM      7  C   UNL     1     -46.465  38.818  26.449  1.00  0.00     0.140 A 
ATOM      8  C   UNL     1     -45.273  38.918  27.164  1.00  0.00     0.010 A 
ATOM      9  C   UNL     1     -44.638  40.136  27.344  1.00  0.00     0.095 A 
ATOM     10  N   UNL     1     -43.451  40.171  27.982  1.00  0.00    -0.251 NA
ATOM     11  H   UNL     1     -42.832  43.478  27.696  1.00  0.00     0.066 H 
ATOM     12  H   UNL     1     -47.961  40.022  25.436  1.00  0.00     0.088 H 
ATOM     13  H   UNL     1     -44.799  38.017  27.547  1.00  0.00     0.069 H 
ENDROOT
BRANCH   1  14
ATOM     14  C   UNL     1     -41.504  41.376  28.825  1.00  0.00    -0.013 C 
ATOM     15  H   UNL     1     -41.207  42.413  29.019  1.00  0.00     0.033 H 
ATOM     16  H   UNL     1     -40.731  40.945  28.179  1.00  0.00     0.033 H 
BRANCH  14  17
ATOM     17  C   UNL     1     -41.572  40.614  30.139  1.00  0.00    -0.060 C 
ATOM     18  H   UNL     1     -42.611  40.474  30.463  1.00  0.00     0.023 H 
ATOM     19  H   UNL     1     -41.115  39.623  30.050  1.00  0.00     0.023 H 
ATOM     20  H   UNL     1     -41.043  41.163  30.924  1.00  0.00     0.023 H 
ENDBRANCH  14  17
ENDBRANCH   1  14
BRANCH   3  21
ATOM     21  N   UNL     1     -45.111  43.661  26.300  1.00  0.00    -0.381 N 
ATOM     22  H   UNL     1     -45.710  43.340  25.523  1.00  0.00     0.160 HD
BRANCH  21  23
ATOM     23  C   UNL     1     -44.093  44.577  25.746  1.00  0.00     0.038 C 
ATOM     24  H   UNL     1     -43.232  44.671  26.415  1.00  0.00     0.051 H 
ATOM     25  H   UNL     1     -44.562  45.567  25.681  1.00  0.00     0.051 H 
BRANCH  23  26
ATOM     26  C   UNL     1     -43.638  44.154  24.341  1.00  0.00     0.063 C 
ATOM     27  H   UNL     1     -43.301  45.034  23.782  1.00  0.00     0.059 H 
ATOM     28  H   UNL     1     -42.807  43.441  24.401  1.00  0.00     0.059 H 
BRANCH  26  29
ATOM     29  O   UNL     1     -44.745  43.572  23.642  1.00  0.00    -0.383 OA
BRANCH  29  30
ATOM     30  C   UNL     1     -45.236  44.445  22.634  1.00  0.00     0.036 C 
ATOM     31  H   UNL     1     -44.742  44.237  21.680  1.00  0.00     0.053 H 
ATOM     32  H   UNL     1     -45.084  45.491  22.920  1.00  0.00     0.053 H 
ATOM     33  H   UNL     1     -46.307  44.266  22.514  1.00  0.00     0.053 H 
ENDBRANCH  29  30
ENDBRANCH  26  29
ENDBRANCH  23  26
ENDBRANCH  21  23
ENDBRANCH   3  21
BRANCH   7  34
ATOM     34  O   UNL     1     -46.910  37.545  26.232  1.00  0.00    -0.487 OA
BRANCH  34  35
ATOM     35  C   UNL     1     -47.347  36.768  27.352  1.00  0.00     0.115 C 
ATOM     36  H   UNL     1     -46.800  37.159  28.219  1.00  0.00     0.076 H 
ATOM     37  H   UNL     1     -48.410  36.958  27.545  1.00  0.00     0.076 H 
BRANCH  35  38
ATOM     38  C   UNL     1     -47.067  35.284  27.275  1.00  0.00     0.010 A 
ATOM     39  C   UNL     1     -46.358  34.672  28.302  1.00  0.00     0.034 A 
ATOM     40  C   UNL     1     -47.489  34.465  26.218  1.00  0.00    -0.028 A 
ATOM     41  N   UNL     1     -46.082  33.352  28.349  1.00  0.00    -0.262 NA
ATOM     42  H   UNL     1     -45.981  35.241  29.149  1.00  0.00     0.084 H 
ATOM     43  C   UNL     1     -47.275  33.085  26.252  1.00  0.00     0.066 A 
ATOM     44  H   UNL     1     -47.986  34.931  25.374  1.00  0.00     0.065 H 
ATOM     45  C   UNL     1     -46.555  32.589  27.333  1.00  0.00     0.051 A 
ATOM     46  H   UNL     1     -46.339  31.534  27.468  1.00  0.00     0.086 H 
BRANCH  43  47
ATOM     47  N   UNL     1     -47.812  32.204  25.259  1.00  0.00    -0.299 N 
ATOM     48  C   UNL     1     -49.046  31.582  25.334  1.00  0.00     0.021 A 
ATOM     49  C   UNL     1     -47.243  31.847  24.034  1.00  0.00     0.150 A 
ATOM     50  C   UNL     1     -49.273  30.862  24.179  1.00  0.00     0.033 A 
ATOM     51  H   UNL     1     -49.664  31.661  26.217  1.00  0.00     0.083 H 
ATOM     52  C   UNL     1     -48.145  31.050  23.331  1.00  0.00     0.071 A 
ATOM     53  N   UNL     1     -46.039  32.242  23.571  1.00  0.00    -0.218 NA
ATOM     54  C   UNL     1     -47.757  30.656  22.035  1.00  0.00     0.137 A 
ATOM     55  C   UNL     1     -45.764  31.774  22.349  1.00  0.00     0.120 A 
ATOM     56  N   UNL     1     -46.548  31.018  21.568  1.00  0.00    -0.219 NA
ATOM     57  H   UNL     1     -44.795  32.040  21.937  1.00  0.00     0.106 H 
BRANCH  50  58
ATOM     58  C   UNL     1     -50.456  30.043  23.896  1.00  0.00     0.095 A 
ATOM     59  C   UNL     1     -51.541  30.455  23.088  1.00  0.00    -0.016 A 
ATOM     60  N   UNL     1     -50.653  28.817  24.398  1.00  0.00    -0.173 NA
ATOM     61  C   UNL     1     -52.423  29.401  23.109  1.00  0.00     0.025 A 
ATOM     62  H   UNL     1     -51.666  31.387  22.556  1.00  0.00     0.066 H 
ATOM     63  N   UNL     1     -51.850  28.451  23.901  1.00  0.00    -0.275 N 
ATOM     64  H   UNL     1     -53.386  29.255  22.639  1.00  0.00     0.084 H 
BRANCH  63  65
ATOM     65  C   UNL     1     -52.391  27.155  24.232  1.00  0.00     0.030 C 
ATOM     66  H   UNL     1     -53.463  27.266  24.413  1.00  0.00     0.048 H 
ATOM     67  H   UNL     1     -51.885  26.789  25.129  1.00  0.00     0.048 H 
ATOM     68  H   UNL     1     -52.222  26.467  23.399  1.00  0.00     0.048 H 
ENDBRANCH  63  65
ENDBRANCH  50  58
BRANCH  54  69
ATOM     69  N   UNL     1     -48.552  29.910  21.177  1.00  0.00    -0.383 N 
ATOM     70  H   UNL     1     -49.161  29.257  21.679  1.00  0.00     0.158 HD
ATOM     71  H   UNL     1     -48.009  29.525  20.416  1.00  0.00     0.158 HD
ENDBRANCH  54  69
ENDBRANCH  43  47
ENDBRANCH  35  38
ENDBRANCH  34  35
ENDBRANCH   7  34
TORSDOF 14
ENDMDL
