MODEL 1
REMARK VINA RESULT:     -11.5      0.000      0.000
REMARK SMILES O=C(NCc1ccc2cc(CN3CCC4(CCC4)C3)[nH]c2c1)c1cc(=O)n2ccccc2n1
REMARK SMILES IDX 5 1 6 2 7 3 8 4 9 5 10 6 20 7 21 8 22 9 4 15 3 18 1 19 2 20
REMARK SMILES IDX 23 22 24 23 33 24 25 25 32 27 26 28 27 29 31 30 28 31 30 32
REMARK SMILES IDX 29 34 11 38 12 41 13 42 19 43 14 44 15 47 16 52 18 53 17 54
REMARK H PARENT 6 10 7 11 9 12 20 13 22 14 4 16 4 17 3 21 24 26 31 33 28 35
REMARK H PARENT 30 36 29 37 11 39 11 40 13 45 13 46 19 48 19 49 14 50 14 51
REMARK H PARENT 16 55 16 56 18 57 18 58 17 59 17 60
REMARK Flexibility Score: inf
ROOT
ATOM      1  C   UNL     1     -48.025  35.304  26.876  1.00  0.00    -0.027 A 
ATOM      2  C   UNL     1     -46.745  35.225  26.311  1.00  0.00    -0.057 A 
ATOM      3  C   UNL     1     -46.368  34.132  25.520  1.00  0.00    -0.052 A 
ATOM      4  C   UNL     1     -47.296  33.102  25.281  1.00  0.00    -0.000 A 
ATOM      5  C   UNL     1     -47.256  31.885  24.548  1.00  0.00    -0.032 A 
ATOM      6  C   UNL     1     -48.493  31.277  24.652  1.00  0.00     0.030 A 
ATOM      7  N   UNL     1     -49.263  32.076  25.463  1.00  0.00    -0.357 N 
ATOM      8  C   UNL     1     -48.566  33.199  25.844  1.00  0.00     0.046 A 
ATOM      9  C   UNL     1     -48.961  34.283  26.638  1.00  0.00    -0.033 A 
ATOM     10  H   UNL     1     -46.023  36.022  26.482  1.00  0.00     0.063 H 
ATOM     11  H   UNL     1     -45.371  34.085  25.093  1.00  0.00     0.063 H 
ATOM     12  H   UNL     1     -46.412  31.501  23.993  1.00  0.00     0.065 H 
ATOM     13  H   UNL     1     -50.218  31.880  25.733  1.00  0.00     0.166 HD
ATOM     14  H   UNL     1     -49.963  34.335  27.055  1.00  0.00     0.065 H 
ENDROOT
BRANCH   1  15
ATOM     15  C   UNL     1     -48.421  36.504  27.694  1.00  0.00     0.043 C 
ATOM     16  H   UNL     1     -49.368  36.925  27.335  1.00  0.00     0.054 H 
ATOM     17  H   UNL     1     -48.577  36.229  28.744  1.00  0.00     0.054 H 
BRANCH  15  18
ATOM     18  N   UNL     1     -47.401  37.517  27.640  1.00  0.00    -0.347 N 
ATOM     19  O   UNL     1     -46.534  37.096  29.723  1.00  0.00    -0.268 OA
ATOM     20  C   UNL     1     -46.503  37.704  28.659  1.00  0.00     0.270 C 
ATOM     21  H   UNL     1     -47.228  38.021  26.775  1.00  0.00     0.164 HD
BRANCH  20  22
ATOM     22  C   UNL     1     -45.456  38.737  28.324  1.00  0.00     0.136 A 
ATOM     23  C   UNL     1     -45.559  39.324  27.129  1.00  0.00     0.035 A 
ATOM     24  N   UNL     1     -44.477  39.012  29.252  1.00  0.00    -0.225 NA
ATOM     25  C   UNL     1     -44.560  40.336  26.763  1.00  0.00     0.258 A 
ATOM     26  H   UNL     1     -46.335  39.100  26.408  1.00  0.00     0.071 H 
ATOM     27  C   UNL     1     -43.597  39.908  28.923  1.00  0.00     0.140 A 
ATOM     28  O   UNL     1     -44.647  40.881  25.663  1.00  0.00    -0.269 OA
ATOM     29  N   UNL     1     -43.584  40.594  27.714  1.00  0.00    -0.268 N 
ATOM     30  C   UNL     1     -42.517  40.236  29.897  1.00  0.00    -0.019 A 
ATOM     31  C   UNL     1     -42.603  41.541  27.439  1.00  0.00     0.014 A 
ATOM     32  C   UNL     1     -41.595  41.155  29.588  1.00  0.00    -0.057 A 
ATOM     33  H   UNL     1     -42.518  39.707  30.842  1.00  0.00     0.066 H 
ATOM     34  C   UNL     1     -41.637  41.831  28.318  1.00  0.00    -0.045 A 
ATOM     35  H   UNL     1     -42.655  42.039  26.474  1.00  0.00     0.082 H 
ATOM     36  H   UNL     1     -40.801  41.408  30.283  1.00  0.00     0.062 H 
ATOM     37  H   UNL     1     -40.876  42.572  28.093  1.00  0.00     0.064 H 
ENDBRANCH  20  22
ENDBRANCH  15  18
ENDBRANCH   1  15
BRANCH   6  38
ATOM     38  C   UNL     1     -49.009  29.989  24.094  1.00  0.00     0.039 C 
ATOM     39  H   UNL     1     -49.942  30.183  23.548  1.00  0.00     0.050 H 
ATOM     40  H   UNL     1     -48.309  29.619  23.333  1.00  0.00     0.050 H 
BRANCH  38  41
ATOM     41  N   UNL     1     -49.241  28.924  25.069  1.00  0.00    -0.297 NA
ATOM     42  C   UNL     1     -50.081  27.814  24.614  1.00  0.00    -0.001 C 
ATOM     43  C   UNL     1     -48.021  28.363  25.671  1.00  0.00     0.004 C 
ATOM     44  C   UNL     1     -49.138  26.637  24.404  1.00  0.00    -0.033 C 
ATOM     45  H   UNL     1     -50.686  28.031  23.729  1.00  0.00     0.043 H 
ATOM     46  H   UNL     1     -50.784  27.573  25.421  1.00  0.00     0.043 H 
ATOM     47  C   UNL     1     -48.126  26.846  25.523  1.00  0.00    -0.016 C 
ATOM     48  H   UNL     1     -47.110  28.726  25.184  1.00  0.00     0.044 H 
ATOM     49  H   UNL     1     -47.959  28.667  26.721  1.00  0.00     0.044 H 
ATOM     50  H   UNL     1     -49.661  25.679  24.462  1.00  0.00     0.029 H 
ATOM     51  H   UNL     1     -48.649  26.702  23.425  1.00  0.00     0.029 H 
ATOM     52  C   UNL     1     -48.417  26.055  26.838  1.00  0.00    -0.046 C 
ATOM     53  C   UNL     1     -46.800  26.039  25.442  1.00  0.00    -0.046 C 
ATOM     54  C   UNL     1     -47.469  24.958  26.313  1.00  0.00    -0.052 C 
ATOM     55  H   UNL     1     -48.049  26.538  27.751  1.00  0.00     0.027 H 
ATOM     56  H   UNL     1     -49.452  25.742  27.004  1.00  0.00     0.027 H 
ATOM     57  H   UNL     1     -45.948  26.526  25.932  1.00  0.00     0.027 H 
ATOM     58  H   UNL     1     -46.490  25.714  24.445  1.00  0.00     0.027 H 
ATOM     59  H   UNL     1     -47.974  24.175  25.737  1.00  0.00     0.027 H 
ATOM     60  H   UNL     1     -46.827  24.488  27.062  1.00  0.00     0.027 H 
ENDBRANCH  38  41
ENDBRANCH   6  38
TORSDOF 5
ENDMDL
MODEL 2
REMARK VINA RESULT:     -11.2      1.753      2.700
REMARK SMILES O=C(NCc1ccc2cc(CN3CCC4(CCC4)C3)[nH]c2c1)c1cc(=O)n2ccccc2n1
REMARK SMILES IDX 5 1 6 2 7 3 8 4 9 5 10 6 20 7 21 8 22 9 4 15 3 18 1 19 2 20
REMARK SMILES IDX 23 22 24 23 33 24 25 25 32 27 26 28 27 29 31 30 28 31 30 32
REMARK SMILES IDX 29 34 11 38 12 41 13 42 19 43 14 44 15 47 16 52 18 53 17 54
REMARK H PARENT 6 10 7 11 9 12 20 13 22 14 4 16 4 17 3 21 24 26 31 33 28 35
REMARK H PARENT 30 36 29 37 11 39 11 40 13 45 13 46 19 48 19 49 14 50 14 51
REMARK H PARENT 16 55 16 56 18 57 18 58 17 59 17 60
REMARK Flexibility Score: inf
ROOT
ATOM      1  C   UNL     1     -46.673  35.525  28.412  1.00  0.00    -0.027 A 
ATOM      2  C   UNL     1     -47.944  35.868  27.932  1.00  0.00    -0.057 A 
ATOM      3  C   UNL     1     -48.554  35.132  26.908  1.00  0.00    -0.052 A 
ATOM      4  C   UNL     1     -47.882  34.024  26.361  1.00  0.00    -0.000 A 
ATOM      5  C   UNL     1     -48.194  33.080  25.345  1.00  0.00    -0.032 A 
ATOM      6  C   UNL     1     -47.146  32.183  25.251  1.00  0.00     0.030 A 
ATOM      7  N   UNL     1     -46.193  32.589  26.156  1.00  0.00    -0.357 N 
ATOM      8  C   UNL     1     -46.623  33.692  26.854  1.00  0.00     0.046 A 
ATOM      9  C   UNL     1     -45.996  34.417  27.877  1.00  0.00    -0.033 A 
ATOM     10  H   UNL     1     -48.477  36.718  28.355  1.00  0.00     0.063 H 
ATOM     11  H   UNL     1     -49.538  35.413  26.545  1.00  0.00     0.063 H 
ATOM     12  H   UNL     1     -49.098  33.054  24.753  1.00  0.00     0.065 H 
ATOM     13  H   UNL     1     -45.303  32.132  26.304  1.00  0.00     0.166 HD
ATOM     14  H   UNL     1     -45.017  34.127  28.248  1.00  0.00     0.065 H 
ENDROOT
BRANCH   1  15
ATOM     15  C   UNL     1     -46.051  36.308  29.537  1.00  0.00     0.043 C 
ATOM     16  H   UNL     1     -46.800  36.560  30.298  1.00  0.00     0.054 H 
ATOM     17  H   UNL     1     -45.275  35.720  30.043  1.00  0.00     0.054 H 
BRANCH  15  18
ATOM     18  N   UNL     1     -45.450  37.519  29.045  1.00  0.00    -0.347 N 
ATOM     19  O   UNL     1     -44.393  38.077  31.004  1.00  0.00    -0.268 OA
ATOM     20  C   UNL     1     -44.625  38.292  29.820  1.00  0.00     0.270 C 
ATOM     21  H   UNL     1     -45.503  37.750  28.057  1.00  0.00     0.164 HD
BRANCH  20  22
ATOM     22  C   UNL     1     -44.019  39.441  29.051  1.00  0.00     0.136 A 
ATOM     23  C   UNL     1     -42.966  40.041  29.609  1.00  0.00     0.035 A 
ATOM     24  N   UNL     1     -44.574  39.793  27.842  1.00  0.00    -0.225 NA
ATOM     25  C   UNL     1     -42.346  41.164  28.894  1.00  0.00     0.258 A 
ATOM     26  H   UNL     1     -42.537  39.754  30.561  1.00  0.00     0.071 H 
ATOM     27  C   UNL     1     -44.023  40.786  27.214  1.00  0.00     0.140 A 
ATOM     28  O   UNL     1     -41.375  41.724  29.402  1.00  0.00    -0.269 OA
ATOM     29  N   UNL     1     -42.925  41.500  27.680  1.00  0.00    -0.268 N 
ATOM     30  C   UNL     1     -44.592  41.203  25.900  1.00  0.00    -0.019 A 
ATOM     31  C   UNL     1     -42.392  42.553  26.944  1.00  0.00     0.014 A 
ATOM     32  C   UNL     1     -44.045  42.223  25.229  1.00  0.00    -0.057 A 
ATOM     33  H   UNL     1     -45.448  40.653  25.529  1.00  0.00     0.066 H 
ATOM     34  C   UNL     1     -42.908  42.923  25.765  1.00  0.00    -0.045 A 
ATOM     35  H   UNL     1     -41.533  43.067  27.368  1.00  0.00     0.082 H 
ATOM     36  H   UNL     1     -44.445  42.542  24.272  1.00  0.00     0.062 H 
ATOM     37  H   UNL     1     -42.484  43.746  25.200  1.00  0.00     0.064 H 
ENDBRANCH  20  22
ENDBRANCH  15  18
ENDBRANCH   1  15
BRANCH   6  38
ATOM     38  C   UNL     1     -46.935  31.003  24.359  1.00  0.00     0.039 C 
ATOM     39  H   UNL     1     -46.627  31.355  23.365  1.00  0.00     0.050 H 
ATOM     40  H   UNL     1     -46.082  30.418  24.728  1.00  0.00     0.050 H 
BRANCH  38  41
ATOM     41  N   UNL     1     -48.083  30.108  24.212  1.00  0.00    -0.297 NA
ATOM     42  C   UNL     1     -47.891  28.967  23.313  1.00  0.00    -0.001 C 
ATOM     43  C   UNL     1     -48.641  29.608  25.478  1.00  0.00     0.004 C 
ATOM     44  C   UNL     1     -47.774  27.744  24.212  1.00  0.00    -0.033 C 
ATOM     45  H   UNL     1     -47.047  29.065  22.624  1.00  0.00     0.043 H 
ATOM     46  H   UNL     1     -48.791  28.875  22.692  1.00  0.00     0.043 H 
ATOM     47  C   UNL     1     -48.742  28.091  25.336  1.00  0.00    -0.016 C 
ATOM     48  H   UNL     1     -48.016  29.864  26.340  1.00  0.00     0.044 H 
ATOM     49  H   UNL     1     -49.619  30.068  25.652  1.00  0.00     0.044 H 
ATOM     50  H   UNL     1     -48.033  26.822  23.682  1.00  0.00     0.029 H 
ATOM     51  H   UNL     1     -46.755  27.642  24.598  1.00  0.00     0.029 H 
ATOM     52  C   UNL     1     -50.187  27.520  25.169  1.00  0.00    -0.046 C 
ATOM     53  C   UNL     1     -48.657  27.240  26.634  1.00  0.00    -0.046 C 
ATOM     54  C   UNL     1     -49.748  26.327  26.042  1.00  0.00    -0.052 C 
ATOM     55  H   UNL     1     -50.973  28.126  25.636  1.00  0.00     0.027 H 
ATOM     56  H   UNL     1     -50.501  27.269  24.152  1.00  0.00     0.027 H 
ATOM     57  H   UNL     1     -48.979  27.770  27.539  1.00  0.00     0.027 H 
ATOM     58  H   UNL     1     -47.697  26.756  26.835  1.00  0.00     0.027 H 
ATOM     59  H   UNL     1     -49.353  25.481  25.468  1.00  0.00     0.027 H 
ATOM     60  H   UNL     1     -50.494  25.958  26.750  1.00  0.00     0.027 H 
ENDBRANCH  38  41
ENDBRANCH   6  38
TORSDOF 5
ENDMDL
MODEL 3
REMARK VINA RESULT:     -10.9      2.162      3.616
REMARK SMILES O=C(NCc1ccc2cc(CN3CCC4(CCC4)C3)[nH]c2c1)c1cc(=O)n2ccccc2n1
REMARK SMILES IDX 5 1 6 2 7 3 8 4 9 5 10 6 20 7 21 8 22 9 4 15 3 18 1 19 2 20
REMARK SMILES IDX 23 22 24 23 33 24 25 25 32 27 26 28 27 29 31 30 28 31 30 32
REMARK SMILES IDX 29 34 11 38 12 41 13 42 19 43 14 44 15 47 16 52 18 53 17 54
REMARK H PARENT 6 10 7 11 9 12 20 13 22 14 4 16 4 17 3 21 24 26 31 33 28 35
REMARK H PARENT 30 36 29 37 11 39 11 40 13 45 13 46 19 48 19 49 14 50 14 51
REMARK H PARENT 16 55 16 56 18 57 18 58 17 59 17 60
REMARK Flexibility Score: inf
ROOT
ATOM      1  C   UNL     1     -46.503  36.528  28.247  1.00  0.00    -0.027 A 
ATOM      2  C   UNL     1     -47.893  36.475  28.080  1.00  0.00    -0.057 A 
ATOM      3  C   UNL     1     -48.487  35.525  27.240  1.00  0.00    -0.052 A 
ATOM      4  C   UNL     1     -47.671  34.601  26.561  1.00  0.00    -0.000 A 
ATOM      5  C   UNL     1     -47.926  33.532  25.659  1.00  0.00    -0.032 A 
ATOM      6  C   UNL     1     -46.717  32.948  25.328  1.00  0.00     0.030 A 
ATOM      7  N   UNL     1     -45.738  33.665  25.974  1.00  0.00    -0.357 N 
ATOM      8  C   UNL     1     -46.292  34.662  26.743  1.00  0.00     0.046 A 
ATOM      9  C   UNL     1     -45.680  35.606  27.578  1.00  0.00    -0.033 A 
ATOM     10  H   UNL     1     -48.533  37.180  28.609  1.00  0.00     0.063 H 
ATOM     11  H   UNL     1     -49.565  35.500  27.118  1.00  0.00     0.063 H 
ATOM     12  H   UNL     1     -48.895  33.216  25.300  1.00  0.00     0.065 H 
ATOM     13  H   UNL     1     -44.746  33.480  25.910  1.00  0.00     0.166 HD
ATOM     14  H   UNL     1     -44.602  35.623  27.708  1.00  0.00     0.065 H 
ENDROOT
BRANCH   1  15
ATOM     15  C   UNL     1     -45.889  37.535  29.182  1.00  0.00     0.043 C 
ATOM     16  H   UNL     1     -46.663  38.051  29.763  1.00  0.00     0.054 H 
ATOM     17  H   UNL     1     -45.226  37.046  29.906  1.00  0.00     0.054 H 
BRANCH  15  18
ATOM     18  N   UNL     1     -45.119  38.507  28.452  1.00  0.00    -0.347 N 
ATOM     19  O   UNL     1     -46.845  39.986  28.129  1.00  0.00    -0.268 OA
ATOM     20  C   UNL     1     -45.661  39.688  28.015  1.00  0.00     0.270 C 
ATOM     21  H   UNL     1     -44.112  38.406  28.374  1.00  0.00     0.164 HD
BRANCH  20  22
ATOM     22  C   UNL     1     -44.634  40.596  27.384  1.00  0.00     0.136 A 
ATOM     23  C   UNL     1     -43.491  40.757  28.052  1.00  0.00     0.035 A 
ATOM     24  N   UNL     1     -44.930  41.191  26.178  1.00  0.00    -0.225 NA
ATOM     25  C   UNL     1     -42.464  41.633  27.473  1.00  0.00     0.258 A 
ATOM     26  H   UNL     1     -43.269  40.282  29.000  1.00  0.00     0.071 H 
ATOM     27  C   UNL     1     -44.019  41.964  25.670  1.00  0.00     0.140 A 
ATOM     28  O   UNL     1     -41.407  41.788  28.084  1.00  0.00    -0.269 OA
ATOM     29  N   UNL     1     -42.786  42.222  26.260  1.00  0.00    -0.268 N 
ATOM     30  C   UNL     1     -44.296  42.631  24.366  1.00  0.00    -0.019 A 
ATOM     31  C   UNL     1     -41.863  43.064  25.649  1.00  0.00     0.014 A 
ATOM     32  C   UNL     1     -43.377  43.434  23.818  1.00  0.00    -0.057 A 
ATOM     33  H   UNL     1     -45.254  42.438  23.899  1.00  0.00     0.066 H 
ATOM     34  C   UNL     1     -42.119  43.660  24.478  1.00  0.00    -0.045 A 
ATOM     35  H   UNL     1     -40.919  43.220  26.166  1.00  0.00     0.082 H 
ATOM     36  H   UNL     1     -43.561  43.929  22.869  1.00  0.00     0.062 H 
ATOM     37  H   UNL     1     -41.391  44.315  24.010  1.00  0.00     0.064 H 
ENDBRANCH  20  22
ENDBRANCH  15  18
ENDBRANCH   1  15
BRANCH   6  38
ATOM     38  C   UNL     1     -46.390  31.803  24.424  1.00  0.00     0.039 C 
ATOM     39  H   UNL     1     -45.514  32.065  23.816  1.00  0.00     0.050 H 
ATOM     40  H   UNL     1     -46.067  30.945  25.029  1.00  0.00     0.050 H 
BRANCH  38  41
ATOM     41  N   UNL     1     -47.470  31.367  23.539  1.00  0.00    -0.297 NA
ATOM     42  C   UNL     1     -47.061  30.932  22.201  1.00  0.00    -0.001 C 
ATOM     43  C   UNL     1     -48.356  30.339  24.107  1.00  0.00     0.004 C 
ATOM     44  C   UNL     1     -47.211  29.417  22.192  1.00  0.00    -0.033 C 
ATOM     45  H   UNL     1     -46.062  31.258  21.899  1.00  0.00     0.043 H 
ATOM     46  H   UNL     1     -47.763  31.368  21.479  1.00  0.00     0.043 H 
ATOM     47  C   UNL     1     -48.439  29.221  23.071  1.00  0.00    -0.016 C 
ATOM     48  H   UNL     1     -47.982  29.944  25.058  1.00  0.00     0.044 H 
ATOM     49  H   UNL     1     -49.338  30.778  24.314  1.00  0.00     0.044 H 
ATOM     50  H   UNL     1     -47.332  29.024  21.179  1.00  0.00     0.029 H 
ATOM     51  H   UNL     1     -46.334  28.938  22.642  1.00  0.00     0.029 H 
ATOM     52  C   UNL     1     -49.795  29.107  22.302  1.00  0.00    -0.046 C 
ATOM     53  C   UNL     1     -48.720  27.782  23.587  1.00  0.00    -0.046 C 
ATOM     54  C   UNL     1     -49.626  27.576  22.358  1.00  0.00    -0.052 C 
ATOM     55  H   UNL     1     -50.668  29.463  22.863  1.00  0.00     0.027 H 
ATOM     56  H   UNL     1     -49.827  29.541  21.299  1.00  0.00     0.027 H 
ATOM     57  H   UNL     1     -49.265  27.746  24.539  1.00  0.00     0.027 H 
ATOM     58  H   UNL     1     -47.858  27.113  23.654  1.00  0.00     0.027 H 
ATOM     59  H   UNL     1     -49.105  27.156  21.490  1.00  0.00     0.027 H 
ATOM     60  H   UNL     1     -50.541  27.004  22.533  1.00  0.00     0.027 H 
ENDBRANCH  38  41
ENDBRANCH   6  38
TORSDOF 5
ENDMDL
MODEL 4
REMARK VINA RESULT:     -10.7      1.904      3.011
REMARK SMILES O=C(NCc1ccc2cc(CN3CCC4(CCC4)C3)[nH]c2c1)c1cc(=O)n2ccccc2n1
REMARK SMILES IDX 5 1 6 2 7 3 8 4 9 5 10 6 20 7 21 8 22 9 4 15 3 18 1 19 2 20
REMARK SMILES IDX 23 22 24 23 33 24 25 25 32 27 26 28 27 29 31 30 28 31 30 32
REMARK SMILES IDX 29 34 11 38 12 41 13 42 19 43 14 44 15 47 16 52 18 53 17 54
REMARK H PARENT 6 10 7 11 9 12 20 13 22 14 4 16 4 17 3 21 24 26 31 33 28 35
REMARK H PARENT 30 36 29 37 11 39 11 40 13 45 13 46 19 48 19 49 14 50 14 51
REMARK H PARENT 16 55 16 56 18 57 18 58 17 59 17 60
REMARK Flexibility Score: inf
ROOT
ATOM      1  C   UNL     1     -47.729  35.419  26.772  1.00  0.00    -0.027 A 
ATOM      2  C   UNL     1     -46.511  35.242  26.104  1.00  0.00    -0.057 A 
ATOM      3  C   UNL     1     -46.196  34.028  25.479  1.00  0.00    -0.052 A 
ATOM      4  C   UNL     1     -47.127  32.974  25.516  1.00  0.00    -0.000 A 
ATOM      5  C   UNL     1     -47.141  31.648  25.003  1.00  0.00    -0.032 A 
ATOM      6  C   UNL     1     -48.352  31.069  25.334  1.00  0.00     0.030 A 
ATOM      7  N   UNL     1     -49.050  31.998  26.069  1.00  0.00    -0.357 N 
ATOM      8  C   UNL     1     -48.336  33.168  26.178  1.00  0.00     0.046 A 
ATOM      9  C   UNL     1     -48.668  34.374  26.810  1.00  0.00    -0.033 A 
ATOM     10  H   UNL     1     -45.788  36.055  26.062  1.00  0.00     0.063 H 
ATOM     11  H   UNL     1     -45.246  33.906  24.968  1.00  0.00     0.063 H 
ATOM     12  H   UNL     1     -46.350  31.172  24.440  1.00  0.00     0.065 H 
ATOM     13  H   UNL     1     -49.969  31.852  26.463  1.00  0.00     0.166 HD
ATOM     14  H   UNL     1     -49.624  34.499  27.310  1.00  0.00     0.065 H 
ENDROOT
BRANCH   1  15
ATOM     15  C   UNL     1     -48.061  36.743  27.407  1.00  0.00     0.043 C 
ATOM     16  H   UNL     1     -48.933  37.200  26.923  1.00  0.00     0.054 H 
ATOM     17  H   UNL     1     -48.319  36.618  28.466  1.00  0.00     0.054 H 
BRANCH  15  18
ATOM     18  N   UNL     1     -46.944  37.646  27.319  1.00  0.00    -0.347 N 
ATOM     19  O   UNL     1     -48.188  39.574  27.364  1.00  0.00    -0.268 OA
ATOM     20  C   UNL     1     -47.102  39.007  27.346  1.00  0.00     0.270 C 
ATOM     21  H   UNL     1     -45.995  37.290  27.387  1.00  0.00     0.164 HD
BRANCH  20  22
ATOM     22  C   UNL     1     -45.783  39.741  27.365  1.00  0.00     0.136 A 
ATOM     23  C   UNL     1     -45.504  40.491  26.298  1.00  0.00     0.035 A 
ATOM     24  N   UNL     1     -44.963  39.599  28.462  1.00  0.00    -0.225 NA
ATOM     25  C   UNL     1     -44.231  41.222  26.275  1.00  0.00     0.258 A 
ATOM     26  H   UNL     1     -46.159  40.596  25.442  1.00  0.00     0.071 H 
ATOM     27  C   UNL     1     -43.838  40.247  28.437  1.00  0.00     0.140 A 
ATOM     28  O   UNL     1     -43.965  41.916  25.294  1.00  0.00    -0.269 OA
ATOM     29  N   UNL     1     -43.422  41.062  27.390  1.00  0.00    -0.268 N 
ATOM     30  C   UNL     1     -42.917  40.122  29.602  1.00  0.00    -0.019 A 
ATOM     31  C   UNL     1     -42.199  41.723  27.441  1.00  0.00     0.014 A 
ATOM     32  C   UNL     1     -41.751  40.778  29.606  1.00  0.00    -0.057 A 
ATOM     33  H   UNL     1     -43.233  39.489  30.423  1.00  0.00     0.066 H 
ATOM     34  C   UNL     1     -41.377  41.606  28.491  1.00  0.00    -0.045 A 
ATOM     35  H   UNL     1     -41.938  42.344  26.588  1.00  0.00     0.082 H 
ATOM     36  H   UNL     1     -41.067  40.699  30.445  1.00  0.00     0.062 H 
ATOM     37  H   UNL     1     -40.426  42.127  28.520  1.00  0.00     0.064 H 
ENDBRANCH  20  22
ENDBRANCH  15  18
ENDBRANCH   1  15
BRANCH   6  38
ATOM     38  C   UNL     1     -48.900  29.705  25.061  1.00  0.00     0.039 C 
ATOM     39  H   UNL     1     -48.114  28.959  25.244  1.00  0.00     0.050 H 
ATOM     40  H   UNL     1     -49.683  29.476  25.796  1.00  0.00     0.050 H 
BRANCH  38  41
ATOM     41  N   UNL     1     -49.446  29.500  23.720  1.00  0.00    -0.297 NA
ATOM     42  C   UNL     1     -50.485  30.445  23.304  1.00  0.00    -0.001 C 
ATOM     43  C   UNL     1     -48.441  29.420  22.649  1.00  0.00     0.004 C 
ATOM     44  C   UNL     1     -49.830  31.360  22.278  1.00  0.00    -0.033 C 
ATOM     45  H   UNL     1     -50.954  30.999  24.122  1.00  0.00     0.043 H 
ATOM     46  H   UNL     1     -51.285  29.872  22.818  1.00  0.00     0.043 H 
ATOM     47  C   UNL     1     -48.885  30.400  21.565  1.00  0.00    -0.016 C 
ATOM     48  H   UNL     1     -47.436  29.677  23.000  1.00  0.00     0.044 H 
ATOM     49  H   UNL     1     -48.390  28.392  22.274  1.00  0.00     0.044 H 
ATOM     50  H   UNL     1     -50.565  31.822  21.613  1.00  0.00     0.029 H 
ATOM     51  H   UNL     1     -49.267  32.158  22.774  1.00  0.00     0.029 H 
ATOM     52  C   UNL     1     -49.451  29.757  20.259  1.00  0.00    -0.046 C 
ATOM     53  C   UNL     1     -47.782  31.026  20.667  1.00  0.00    -0.046 C 
ATOM     54  C   UNL     1     -48.749  30.883  19.475  1.00  0.00    -0.052 C 
ATOM     55  H   UNL     1     -49.051  28.762  20.031  1.00  0.00     0.027 H 
ATOM     56  H   UNL     1     -50.540  29.724  20.161  1.00  0.00     0.027 H 
ATOM     57  H   UNL     1     -46.880  30.410  20.570  1.00  0.00     0.027 H 
ATOM     58  H   UNL     1     -47.482  32.049  20.909  1.00  0.00     0.027 H 
ATOM     59  H   UNL     1     -49.377  31.765  19.308  1.00  0.00     0.027 H 
ATOM     60  H   UNL     1     -48.292  30.587  18.527  1.00  0.00     0.027 H 
ENDBRANCH  38  41
ENDBRANCH   6  38
TORSDOF 5
ENDMDL
MODEL 5
REMARK VINA RESULT:     -10.4      2.582      4.346
REMARK SMILES O=C(NCc1ccc2cc(CN3CCC4(CCC4)C3)[nH]c2c1)c1cc(=O)n2ccccc2n1
REMARK SMILES IDX 5 1 6 2 7 3 8 4 9 5 10 6 20 7 21 8 22 9 4 15 3 18 1 19 2 20
REMARK SMILES IDX 23 22 24 23 33 24 25 25 32 27 26 28 27 29 31 30 28 31 30 32
REMARK SMILES IDX 29 34 11 38 12 41 13 42 19 43 14 44 15 47 16 52 18 53 17 54
REMARK H PARENT 6 10 7 11 9 12 20 13 22 14 4 16 4 17 3 21 24 26 31 33 28 35
REMARK H PARENT 30 36 29 37 11 39 11 40 13 45 13 46 19 48 19 49 14 50 14 51
REMARK H PARENT 16 55 16 56 18 57 18 58 17 59 17 60
REMARK Flexibility Score: inf
ROOT
ATOM      1  C   UNL     1     -45.492  37.650  28.233  1.00  0.00    -0.027 A 
ATOM      2  C   UNL     1     -46.648  38.069  27.562  1.00  0.00    -0.057 A 
ATOM      3  C   UNL     1     -47.457  37.157  26.874  1.00  0.00    -0.052 A 
ATOM      4  C   UNL     1     -47.106  35.794  26.866  1.00  0.00    -0.000 A 
ATOM      5  C   UNL     1     -47.679  34.628  26.290  1.00  0.00    -0.032 A 
ATOM      6  C   UNL     1     -46.896  33.543  26.640  1.00  0.00     0.030 A 
ATOM      7  N   UNL     1     -45.844  34.033  27.377  1.00  0.00    -0.357 N 
ATOM      8  C   UNL     1     -45.957  35.393  27.543  1.00  0.00     0.046 A 
ATOM      9  C   UNL     1     -45.135  36.291  28.237  1.00  0.00    -0.033 A 
ATOM     10  H   UNL     1     -46.934  39.120  27.570  1.00  0.00     0.063 H 
ATOM     11  H   UNL     1     -48.348  37.498  26.356  1.00  0.00     0.063 H 
ATOM     12  H   UNL     1     -48.578  34.586  25.691  1.00  0.00     0.065 H 
ATOM     13  H   UNL     1     -45.095  33.473  27.761  1.00  0.00     0.166 HD
ATOM     14  H   UNL     1     -44.251  35.947  28.764  1.00  0.00     0.065 H 
ENDROOT
BRANCH   1  15
ATOM     15  C   UNL     1     -44.656  38.643  28.996  1.00  0.00     0.043 C 
ATOM     16  H   UNL     1     -45.122  38.888  29.958  1.00  0.00     0.054 H 
ATOM     17  H   UNL     1     -43.665  38.230  29.223  1.00  0.00     0.054 H 
BRANCH  15  18
ATOM     18  N   UNL     1     -44.477  39.851  28.236  1.00  0.00    -0.347 N 
ATOM     19  O   UNL     1     -42.568  40.532  29.312  1.00  0.00    -0.268 OA
ATOM     20  C   UNL     1     -43.408  40.686  28.434  1.00  0.00     0.270 C 
ATOM     21  H   UNL     1     -45.062  40.036  27.426  1.00  0.00     0.164 HD
BRANCH  20  22
ATOM     22  C   UNL     1     -43.369  41.820  27.438  1.00  0.00     0.136 A 
ATOM     23  C   UNL     1     -42.213  42.013  26.800  1.00  0.00     0.035 A 
ATOM     24  N   UNL     1     -44.506  42.572  27.247  1.00  0.00    -0.225 NA
ATOM     25  C   UNL     1     -42.132  43.106  25.823  1.00  0.00     0.258 A 
ATOM     26  H   UNL     1     -41.325  41.413  26.958  1.00  0.00     0.071 H 
ATOM     27  C   UNL     1     -44.429  43.537  26.382  1.00  0.00     0.140 A 
ATOM     28  O   UNL     1     -41.069  43.292  25.231  1.00  0.00    -0.269 OA
ATOM     29  N   UNL     1     -43.289  43.849  25.650  1.00  0.00    -0.268 N 
ATOM     30  C   UNL     1     -45.637  44.378  26.144  1.00  0.00    -0.019 A 
ATOM     31  C   UNL     1     -43.290  44.901  24.740  1.00  0.00     0.014 A 
ATOM     32  C   UNL     1     -45.589  45.380  25.258  1.00  0.00    -0.057 A 
ATOM     33  H   UNL     1     -46.530  44.143  26.710  1.00  0.00     0.066 H 
ATOM     34  C   UNL     1     -44.377  45.653  24.531  1.00  0.00    -0.045 A 
ATOM     35  H   UNL     1     -42.364  45.089  24.202  1.00  0.00     0.082 H 
ATOM     36  H   UNL     1     -46.457  46.004  25.071  1.00  0.00     0.062 H 
ATOM     37  H   UNL     1     -44.366  46.472  23.819  1.00  0.00     0.064 H 
ENDBRANCH  20  22
ENDBRANCH  15  18
ENDBRANCH   1  15
BRANCH   6  38
ATOM     38  C   UNL     1     -47.021  32.090  26.310  1.00  0.00     0.039 C 
ATOM     39  H   UNL     1     -46.023  31.631  26.329  1.00  0.00     0.050 H 
ATOM     40  H   UNL     1     -47.579  31.585  27.110  1.00  0.00     0.050 H 
BRANCH  38  41
ATOM     41  N   UNL     1     -47.661  31.784  25.031  1.00  0.00    -0.297 NA
ATOM     42  C   UNL     1     -46.757  31.601  23.894  1.00  0.00    -0.001 C 
ATOM     43  C   UNL     1     -48.595  30.648  25.065  1.00  0.00     0.004 C 
ATOM     44  C   UNL     1     -46.753  30.107  23.601  1.00  0.00    -0.033 C 
ATOM     45  H   UNL     1     -45.750  32.003  24.040  1.00  0.00     0.043 H 
ATOM     46  H   UNL     1     -47.185  32.136  23.036  1.00  0.00     0.043 H 
ATOM     47  C   UNL     1     -48.194  29.725  23.916  1.00  0.00    -0.016 C 
ATOM     48  H   UNL     1     -48.557  30.104  26.015  1.00  0.00     0.044 H 
ATOM     49  H   UNL     1     -49.620  31.016  24.954  1.00  0.00     0.044 H 
ATOM     50  H   UNL     1     -46.462  29.894  22.568  1.00  0.00     0.029 H 
ATOM     51  H   UNL     1     -46.060  29.583  24.267  1.00  0.00     0.029 H 
ATOM     52  C   UNL     1     -49.161  29.709  22.690  1.00  0.00    -0.046 C 
ATOM     53  C   UNL     1     -48.510  28.211  24.067  1.00  0.00    -0.046 C 
ATOM     54  C   UNL     1     -48.885  28.196  22.572  1.00  0.00    -0.052 C 
ATOM     55  H   UNL     1     -50.207  29.936  22.931  1.00  0.00     0.027 H 
ATOM     56  H   UNL     1     -48.867  30.310  21.824  1.00  0.00     0.027 H 
ATOM     57  H   UNL     1     -49.358  27.994  24.729  1.00  0.00     0.027 H 
ATOM     58  H   UNL     1     -47.674  27.566  24.348  1.00  0.00     0.027 H 
ATOM     59  H   UNL     1     -48.048  27.950  21.909  1.00  0.00     0.027 H 
ATOM     60  H   UNL     1     -49.745  27.577  22.304  1.00  0.00     0.027 H 
ENDBRANCH  38  41
ENDBRANCH   6  38
TORSDOF 5
ENDMDL
MODEL 6
REMARK VINA RESULT:     -10.4      2.800     11.908
REMARK SMILES O=C(NCc1ccc2cc(CN3CCC4(CCC4)C3)[nH]c2c1)c1cc(=O)n2ccccc2n1
REMARK SMILES IDX 5 1 6 2 7 3 8 4 9 5 10 6 20 7 21 8 22 9 4 15 3 18 1 19 2 20
REMARK SMILES IDX 23 22 24 23 33 24 25 25 32 27 26 28 27 29 31 30 28 31 30 32
REMARK SMILES IDX 29 34 11 38 12 41 13 42 19 43 14 44 15 47 16 52 18 53 17 54
REMARK H PARENT 6 10 7 11 9 12 20 13 22 14 4 16 4 17 3 21 24 26 31 33 28 35
REMARK H PARENT 30 36 29 37 11 39 11 40 13 45 13 46 19 48 19 49 14 50 14 51
REMARK H PARENT 16 55 16 56 18 57 18 58 17 59 17 60
REMARK Flexibility Score: inf
ROOT
ATOM      1  C   UNL     1     -47.978  34.222  26.617  1.00  0.00    -0.027 A 
ATOM      2  C   UNL     1     -46.809  33.613  27.091  1.00  0.00    -0.057 A 
ATOM      3  C   UNL     1     -45.755  34.375  27.612  1.00  0.00    -0.052 A 
ATOM      4  C   UNL     1     -45.880  35.775  27.670  1.00  0.00    -0.000 A 
ATOM      5  C   UNL     1     -45.038  36.825  28.125  1.00  0.00    -0.032 A 
ATOM      6  C   UNL     1     -45.708  38.023  27.954  1.00  0.00     0.030 A 
ATOM      7  N   UNL     1     -46.915  37.723  27.369  1.00  0.00    -0.357 N 
ATOM      8  C   UNL     1     -47.052  36.364  27.202  1.00  0.00     0.046 A 
ATOM      9  C   UNL     1     -48.115  35.620  26.676  1.00  0.00    -0.033 A 
ATOM     10  H   UNL     1     -46.706  32.530  27.059  1.00  0.00     0.063 H 
ATOM     11  H   UNL     1     -44.854  33.887  27.972  1.00  0.00     0.063 H 
ATOM     12  H   UNL     1     -44.048  36.714  28.546  1.00  0.00     0.065 H 
ATOM     13  H   UNL     1     -47.618  38.401  27.109  1.00  0.00     0.166 HD
ATOM     14  H   UNL     1     -49.021  36.107  26.328  1.00  0.00     0.065 H 
ENDROOT
BRANCH   1  15
ATOM     15  C   UNL     1     -49.112  33.383  26.093  1.00  0.00     0.043 C 
ATOM     16  H   UNL     1     -49.977  33.432  26.765  1.00  0.00     0.054 H 
ATOM     17  H   UNL     1     -49.452  33.748  25.116  1.00  0.00     0.054 H 
BRANCH  15  18
ATOM     18  N   UNL     1     -48.705  32.011  25.944  1.00  0.00    -0.347 N 
ATOM     19  O   UNL     1     -49.803  31.648  23.962  1.00  0.00    -0.268 OA
ATOM     20  C   UNL     1     -49.057  31.260  24.853  1.00  0.00     0.270 C 
ATOM     21  H   UNL     1     -48.018  31.611  26.576  1.00  0.00     0.164 HD
BRANCH  20  22
ATOM     22  C   UNL     1     -48.413  29.895  24.860  1.00  0.00     0.136 A 
ATOM     23  C   UNL     1     -47.458  29.682  23.953  1.00  0.00     0.035 A 
ATOM     24  N   UNL     1     -48.839  28.968  25.785  1.00  0.00    -0.225 NA
ATOM     25  C   UNL     1     -46.805  28.367  23.925  1.00  0.00     0.258 A 
ATOM     26  H   UNL     1     -47.131  30.420  23.232  1.00  0.00     0.071 H 
ATOM     27  C   UNL     1     -48.259  27.807  25.756  1.00  0.00     0.140 A 
ATOM     28  O   UNL     1     -45.924  28.162  23.092  1.00  0.00    -0.269 OA
ATOM     29  N   UNL     1     -47.252  27.451  24.865  1.00  0.00    -0.268 N 
ATOM     30  C   UNL     1     -48.689  26.771  26.738  1.00  0.00    -0.019 A 
ATOM     31  C   UNL     1     -46.681  26.183  24.901  1.00  0.00     0.014 A 
ATOM     32  C   UNL     1     -48.110  25.564  26.734  1.00  0.00    -0.057 A 
ATOM     33  H   UNL     1     -49.472  27.038  27.436  1.00  0.00     0.066 H 
ATOM     34  C   UNL     1     -47.072  25.258  25.786  1.00  0.00    -0.045 A 
ATOM     35  H   UNL     1     -45.899  25.973  24.175  1.00  0.00     0.082 H 
ATOM     36  H   UNL     1     -48.409  24.797  27.441  1.00  0.00     0.062 H 
ATOM     37  H   UNL     1     -46.619  24.271  25.804  1.00  0.00     0.064 H 
ENDBRANCH  20  22
ENDBRANCH  15  18
ENDBRANCH   1  15
BRANCH   6  38
ATOM     38  C   UNL     1     -45.302  39.431  28.249  1.00  0.00     0.039 C 
ATOM     39  H   UNL     1     -46.193  40.072  28.231  1.00  0.00     0.050 H 
ATOM     40  H   UNL     1     -44.932  39.491  29.282  1.00  0.00     0.050 H 
BRANCH  38  41
ATOM     41  N   UNL     1     -44.289  39.998  27.359  1.00  0.00    -0.297 NA
ATOM     42  C   UNL     1     -44.730  40.281  25.991  1.00  0.00    -0.001 C 
ATOM     43  C   UNL     1     -43.609  41.193  27.881  1.00  0.00     0.004 C 
ATOM     44  C   UNL     1     -44.843  41.796  25.895  1.00  0.00    -0.033 C 
ATOM     45  H   UNL     1     -45.651  39.771  25.692  1.00  0.00     0.043 H 
ATOM     46  H   UNL     1     -43.945  39.933  25.307  1.00  0.00     0.043 H 
ATOM     47  C   UNL     1     -43.690  42.250  26.781  1.00  0.00    -0.016 C 
ATOM     48  H   UNL     1     -44.070  41.569  28.800  1.00  0.00     0.044 H 
ATOM     49  H   UNL     1     -42.572  40.942  28.129  1.00  0.00     0.044 H 
ATOM     50  H   UNL     1     -44.764  42.148  24.862  1.00  0.00     0.029 H 
ATOM     51  H   UNL     1     -45.801  42.140  26.301  1.00  0.00     0.029 H 
ATOM     52  C   UNL     1     -42.354  42.553  26.031  1.00  0.00    -0.046 C 
ATOM     53  C   UNL     1     -43.674  43.742  27.217  1.00  0.00    -0.046 C 
ATOM     54  C   UNL     1     -42.785  44.034  25.993  1.00  0.00    -0.052 C 
ATOM     55  H   UNL     1     -41.449  42.386  26.626  1.00  0.00     0.027 H 
ATOM     56  H   UNL     1     -42.221  42.077  25.055  1.00  0.00     0.027 H 
ATOM     57  H   UNL     1     -43.170  43.924  28.174  1.00  0.00     0.027 H 
ATOM     58  H   UNL     1     -44.640  44.255  27.229  1.00  0.00     0.027 H 
ATOM     59  H   UNL     1     -43.347  44.308  25.094  1.00  0.00     0.027 H 
ATOM     60  H   UNL     1     -41.987  44.763  26.150  1.00  0.00     0.027 H 
ENDBRANCH  38  41
ENDBRANCH   6  38
TORSDOF 5
ENDMDL
MODEL 7
REMARK VINA RESULT:     -10.1      1.559      2.283
REMARK SMILES O=C(NCc1ccc2cc(CN3CCC4(CCC4)C3)[nH]c2c1)c1cc(=O)n2ccccc2n1
REMARK SMILES IDX 5 1 6 2 7 3 8 4 9 5 10 6 20 7 21 8 22 9 4 15 3 18 1 19 2 20
REMARK SMILES IDX 23 22 24 23 33 24 25 25 32 27 26 28 27 29 31 30 28 31 30 32
REMARK SMILES IDX 29 34 11 38 12 41 13 42 19 43 14 44 15 47 16 52 18 53 17 54
REMARK H PARENT 6 10 7 11 9 12 20 13 22 14 4 16 4 17 3 21 24 26 31 33 28 35
REMARK H PARENT 30 36 29 37 11 39 11 40 13 45 13 46 19 48 19 49 14 50 14 51
REMARK H PARENT 16 55 16 56 18 57 18 58 17 59 17 60
REMARK Flexibility Score: inf
ROOT
ATOM      1  C   UNL     1     -47.851  34.409  26.484  1.00  0.00    -0.027 A 
ATOM      2  C   UNL     1     -46.533  34.383  26.009  1.00  0.00    -0.057 A 
ATOM      3  C   UNL     1     -46.105  33.397  25.111  1.00  0.00    -0.052 A 
ATOM      4  C   UNL     1     -47.020  32.422  24.672  1.00  0.00    -0.000 A 
ATOM      5  C   UNL     1     -46.935  31.311  23.790  1.00  0.00    -0.032 A 
ATOM      6  C   UNL     1     -48.180  30.715  23.722  1.00  0.00     0.030 A 
ATOM      7  N   UNL     1     -49.003  31.415  24.573  1.00  0.00    -0.357 N 
ATOM      8  C   UNL     1     -48.328  32.466  25.148  1.00  0.00     0.046 A 
ATOM      9  C   UNL     1     -48.774  33.444  26.047  1.00  0.00    -0.033 A 
ATOM     10  H   UNL     1     -45.820  35.138  26.336  1.00  0.00     0.063 H 
ATOM     11  H   UNL     1     -45.080  33.389  24.755  1.00  0.00     0.063 H 
ATOM     12  H   UNL     1     -46.054  30.988  23.252  1.00  0.00     0.065 H 
ATOM     13  H   UNL     1     -49.976  31.201  24.744  1.00  0.00     0.166 HD
ATOM     14  H   UNL     1     -49.803  33.459  26.393  1.00  0.00     0.065 H 
ENDROOT
BRANCH   1  15
ATOM     15  C   UNL     1     -48.298  35.499  27.422  1.00  0.00     0.043 C 
ATOM     16  H   UNL     1     -49.105  36.091  26.974  1.00  0.00     0.054 H 
ATOM     17  H   UNL     1     -48.697  35.076  28.353  1.00  0.00     0.054 H 
BRANCH  15  18
ATOM     18  N   UNL     1     -47.201  36.368  27.755  1.00  0.00    -0.347 N 
ATOM     19  O   UNL     1     -48.421  38.312  27.736  1.00  0.00    -0.268 OA
ATOM     20  C   UNL     1     -47.366  37.718  27.926  1.00  0.00     0.270 C 
ATOM     21  H   UNL     1     -46.302  35.976  28.019  1.00  0.00     0.164 HD
BRANCH  20  22
ATOM     22  C   UNL     1     -46.102  38.399  28.390  1.00  0.00     0.136 A 
ATOM     23  C   UNL     1     -45.589  37.980  29.549  1.00  0.00     0.035 A 
ATOM     24  N   UNL     1     -45.560  39.393  27.606  1.00  0.00    -0.225 NA
ATOM     25  C   UNL     1     -44.360  38.617  30.037  1.00  0.00     0.258 A 
ATOM     26  H   UNL     1     -46.024  37.196  30.156  1.00  0.00     0.071 H 
ATOM     27  C   UNL     1     -44.473  39.953  28.042  1.00  0.00     0.140 A 
ATOM     28  O   UNL     1     -43.881  38.237  31.105  1.00  0.00    -0.269 OA
ATOM     29  N   UNL     1     -43.835  39.615  29.230  1.00  0.00    -0.268 N 
ATOM     30  C   UNL     1     -43.852  41.035  27.225  1.00  0.00    -0.019 A 
ATOM     31  C   UNL     1     -42.671  40.265  29.626  1.00  0.00     0.014 A 
ATOM     32  C   UNL     1     -42.731  41.631  27.648  1.00  0.00    -0.057 A 
ATOM     33  H   UNL     1     -44.342  41.305  26.298  1.00  0.00     0.066 H 
ATOM     34  C   UNL     1     -42.118  41.235  28.888  1.00  0.00    -0.045 A 
ATOM     35  H   UNL     1     -42.225  39.949  30.566  1.00  0.00     0.082 H 
ATOM     36  H   UNL     1     -42.264  42.420  27.068  1.00  0.00     0.062 H 
ATOM     37  H   UNL     1     -41.210  41.735  29.207  1.00  0.00     0.064 H 
ENDBRANCH  20  22
ENDBRANCH  15  18
ENDBRANCH   1  15
BRANCH   6  38
ATOM     38  C   UNL     1     -48.662  29.521  22.963  1.00  0.00     0.039 C 
ATOM     39  H   UNL     1     -49.723  29.657  22.715  1.00  0.00     0.050 H 
ATOM     40  H   UNL     1     -48.149  29.478  21.993  1.00  0.00     0.050 H 
BRANCH  38  41
ATOM     41  N   UNL     1     -48.493  28.233  23.636  1.00  0.00    -0.297 NA
ATOM     42  C   UNL     1     -47.883  28.285  24.967  1.00  0.00    -0.001 C 
ATOM     43  C   UNL     1     -49.713  27.416  23.720  1.00  0.00     0.004 C 
ATOM     44  C   UNL     1     -49.010  28.008  25.953  1.00  0.00    -0.033 C 
ATOM     45  H   UNL     1     -47.349  29.214  25.190  1.00  0.00     0.043 H 
ATOM     46  H   UNL     1     -47.143  27.478  25.028  1.00  0.00     0.043 H 
ATOM     47  C   UNL     1     -49.855  27.001  25.183  1.00  0.00    -0.016 C 
ATOM     48  H   UNL     1     -50.605  27.962  23.395  1.00  0.00     0.044 H 
ATOM     49  H   UNL     1     -49.617  26.549  23.057  1.00  0.00     0.044 H 
ATOM     50  H   UNL     1     -48.635  27.624  26.905  1.00  0.00     0.029 H 
ATOM     51  H   UNL     1     -49.584  28.919  26.153  1.00  0.00     0.029 H 
ATOM     52  C   UNL     1     -49.550  25.501  25.495  1.00  0.00    -0.046 C 
ATOM     53  C   UNL     1     -51.289  26.722  25.715  1.00  0.00    -0.046 C 
ATOM     54  C   UNL     1     -50.703  25.545  26.518  1.00  0.00    -0.052 C 
ATOM     55  H   UNL     1     -49.742  24.814  24.662  1.00  0.00     0.027 H 
ATOM     56  H   UNL     1     -48.562  25.277  25.909  1.00  0.00     0.027 H 
ATOM     57  H   UNL     1     -52.001  26.409  24.941  1.00  0.00     0.027 H 
ATOM     58  H   UNL     1     -51.748  27.516  26.311  1.00  0.00     0.027 H 
ATOM     59  H   UNL     1     -50.386  25.815  27.531  1.00  0.00     0.027 H 
ATOM     60  H   UNL     1     -51.326  24.648  26.568  1.00  0.00     0.027 H 
ENDBRANCH  38  41
ENDBRANCH   6  38
TORSDOF 5
ENDMDL
