MODEL 1
REMARK VINA RESULT:      -9.3      0.000      0.000
REMARK SMILES CN(CCO)C(=O)c1ccc(OCc2cncc(-n3cc(-c4ccn(C)n4)c4c(N)ncnc43)c2)cc1N
REMARK SMILES IDX 8 1 9 2 10 3 11 4 36 5 37 6 6 10 7 11 2 12 1 13 3 17 4 20
REMARK SMILES IDX 5 23 38 25 12 28 13 29 14 32 15 33 35 34 16 35 18 37 17 39
REMARK SMILES IDX 19 41 20 42 34 43 21 44 28 46 33 47 29 48 32 49 31 50 22 52
REMARK SMILES IDX 23 53 27 54 24 55 25 57 26 59 30 63
REMARK H PARENT 9 7 10 8 36 9 1 14 1 15 1 16 3 18 3 19 4 21 4 22 5 24 38 26
REMARK H PARENT 38 27 13 30 13 31 15 36 35 38 17 40 20 45 32 51 23 56 24 58
REMARK H PARENT 26 60 26 61 26 62 30 64 30 65
REMARK Flexibility Score: inf
ROOT
ATOM      1  C   UNL     1     -47.615  31.547  24.093  1.00  0.00     0.063 A 
ATOM      2  C   UNL     1     -46.476  32.218  24.551  1.00  0.00    -0.044 A 
ATOM      3  C   UNL     1     -46.569  33.101  25.628  1.00  0.00    -0.019 A 
ATOM      4  C   UNL     1     -47.805  33.336  26.225  1.00  0.00     0.121 A 
ATOM      5  C   UNL     1     -48.942  32.666  25.749  1.00  0.00     0.004 A 
ATOM      6  C   UNL     1     -48.869  31.737  24.701  1.00  0.00     0.048 A 
ATOM      7  H   UNL     1     -45.517  32.055  24.064  1.00  0.00     0.063 H 
ATOM      8  H   UNL     1     -45.659  33.586  25.964  1.00  0.00     0.066 H 
ATOM      9  H   UNL     1     -49.906  32.890  26.202  1.00  0.00     0.068 H 
ENDROOT
BRANCH   1  10
ATOM     10  C   UNL     1     -47.446  30.639  22.940  1.00  0.00     0.255 C 
ATOM     11  O   UNL     1     -47.838  31.021  21.839  1.00  0.00    -0.269 OA
BRANCH  10  12
ATOM     12  N   UNL     1     -46.863  29.389  23.154  1.00  0.00    -0.339 N 
BRANCH  12  13
ATOM     13  C   UNL     1     -45.546  29.000  22.662  1.00  0.00     0.010 C 
ATOM     14  H   UNL     1     -44.823  29.048  23.479  1.00  0.00     0.046 H 
ATOM     15  H   UNL     1     -45.216  29.647  21.847  1.00  0.00     0.046 H 
ATOM     16  H   UNL     1     -45.596  27.976  22.280  1.00  0.00     0.046 H 
ENDBRANCH  12  13
BRANCH  12  17
ATOM     17  C   UNL     1     -47.499  28.521  24.144  1.00  0.00     0.044 C 
ATOM     18  H   UNL     1     -47.919  29.148  24.938  1.00  0.00     0.052 H 
ATOM     19  H   UNL     1     -46.733  27.879  24.593  1.00  0.00     0.052 H 
BRANCH  17  20
ATOM     20  C   UNL     1     -48.589  27.637  23.522  1.00  0.00     0.061 C 
ATOM     21  H   UNL     1     -48.299  27.287  22.528  1.00  0.00     0.058 H 
ATOM     22  H   UNL     1     -48.775  26.760  24.150  1.00  0.00     0.058 H 
BRANCH  20  23
ATOM     23  O   UNL     1     -49.819  28.356  23.385  1.00  0.00    -0.395 OA
ATOM     24  H   UNL     1     -50.076  28.299  22.449  1.00  0.00     0.210 HD
ENDBRANCH  20  23
ENDBRANCH  17  20
ENDBRANCH  12  17
ENDBRANCH  10  12
ENDBRANCH   1  10
BRANCH   6  25
ATOM     25  N   UNL     1     -50.063  31.222  24.175  1.00  0.00    -0.398 N 
ATOM     26  H   UNL     1     -50.881  31.321  24.765  1.00  0.00     0.156 HD
ATOM     27  H   UNL     1     -50.000  30.297  23.747  1.00  0.00     0.156 HD
ENDBRANCH   6  25
BRANCH   4  28
ATOM     28  O   UNL     1     -48.048  34.178  27.277  1.00  0.00    -0.489 OA
BRANCH  28  29
ATOM     29  C   UNL     1     -48.146  35.582  27.023  1.00  0.00     0.115 C 
ATOM     30  H   UNL     1     -49.163  35.878  27.307  1.00  0.00     0.076 H 
ATOM     31  H   UNL     1     -48.056  35.793  25.950  1.00  0.00     0.076 H 
BRANCH  29  32
ATOM     32  C   UNL     1     -47.190  36.403  27.851  1.00  0.00     0.010 A 
ATOM     33  C   UNL     1     -46.823  35.973  29.117  1.00  0.00     0.034 A 
ATOM     34  C   UNL     1     -46.602  37.584  27.373  1.00  0.00    -0.028 A 
ATOM     35  N   UNL     1     -45.964  36.637  29.915  1.00  0.00    -0.262 NA
ATOM     36  H   UNL     1     -47.220  35.056  29.545  1.00  0.00     0.084 H 
ATOM     37  C   UNL     1     -45.706  38.311  28.172  1.00  0.00     0.066 A 
ATOM     38  H   UNL     1     -46.883  37.914  26.379  1.00  0.00     0.065 H 
ATOM     39  C   UNL     1     -45.430  37.789  29.430  1.00  0.00     0.051 A 
ATOM     40  H   UNL     1     -44.744  38.248  30.133  1.00  0.00     0.086 H 
BRANCH  37  41
ATOM     41  N   UNL     1     -45.111  39.528  27.702  1.00  0.00    -0.299 N 
ATOM     42  C   UNL     1     -45.543  40.248  26.599  1.00  0.00     0.021 A 
ATOM     43  C   UNL     1     -44.020  40.217  28.236  1.00  0.00     0.150 A 
ATOM     44  C   UNL     1     -44.750  41.363  26.429  1.00  0.00     0.033 A 
ATOM     45  H   UNL     1     -46.387  39.925  26.008  1.00  0.00     0.083 H 
ATOM     46  C   UNL     1     -43.763  41.344  27.454  1.00  0.00     0.071 A 
ATOM     47  N   UNL     1     -43.322  39.868  29.336  1.00  0.00    -0.218 NA
ATOM     48  C   UNL     1     -42.667  42.141  27.837  1.00  0.00     0.137 A 
ATOM     49  C   UNL     1     -42.325  40.716  29.617  1.00  0.00     0.120 A 
ATOM     50  N   UNL     1     -41.969  41.815  28.940  1.00  0.00    -0.219 NA
ATOM     51  H   UNL     1     -41.733  40.485  30.496  1.00  0.00     0.106 H 
BRANCH  44  52
ATOM     52  C   UNL     1     -44.913  42.381  25.388  1.00  0.00     0.095 A 
ATOM     53  C   UNL     1     -44.085  42.502  24.248  1.00  0.00    -0.016 A 
ATOM     54  N   UNL     1     -45.890  43.299  25.387  1.00  0.00    -0.173 NA
ATOM     55  C   UNL     1     -44.599  43.565  23.543  1.00  0.00     0.025 A 
ATOM     56  H   UNL     1     -43.225  41.905  23.979  1.00  0.00     0.066 H 
ATOM     57  N   UNL     1     -45.668  44.007  24.263  1.00  0.00    -0.275 N 
ATOM     58  H   UNL     1     -44.296  44.030  22.616  1.00  0.00     0.084 H 
BRANCH  57  59
ATOM     59  C   UNL     1     -46.535  45.114  23.938  1.00  0.00     0.030 C 
ATOM     60  H   UNL     1     -46.503  45.298  22.861  1.00  0.00     0.048 H 
ATOM     61  H   UNL     1     -47.553  44.856  24.244  1.00  0.00     0.048 H 
ATOM     62  H   UNL     1     -46.183  45.996  24.479  1.00  0.00     0.048 H 
ENDBRANCH  57  59
ENDBRANCH  44  52
BRANCH  48  63
ATOM     63  N   UNL     1     -42.246  43.267  27.148  1.00  0.00    -0.383 N 
ATOM     64  H   UNL     1     -42.490  43.236  26.155  1.00  0.00     0.158 HD
ATOM     65  H   UNL     1     -42.477  44.115  27.647  1.00  0.00     0.158 HD
ENDBRANCH  48  63
ENDBRANCH  37  41
ENDBRANCH  29  32
ENDBRANCH  28  29
ENDBRANCH   4  28
TORSDOF 14
ENDMDL
MODEL 2
REMARK VINA RESULT:      -9.2      1.912      3.014
REMARK SMILES CN(CCO)C(=O)c1ccc(OCc2cncc(-n3cc(-c4ccn(C)n4)c4c(N)ncnc43)c2)cc1N
REMARK SMILES IDX 8 1 9 2 10 3 11 4 36 5 37 6 6 10 7 11 2 12 1 13 3 17 4 20
REMARK SMILES IDX 5 23 38 25 12 28 13 29 14 32 15 33 35 34 16 35 18 37 17 39
REMARK SMILES IDX 19 41 20 42 34 43 21 44 28 46 33 47 29 48 32 49 31 50 22 52
REMARK SMILES IDX 23 53 27 54 24 55 25 57 26 59 30 63
REMARK H PARENT 9 7 10 8 36 9 1 14 1 15 1 16 3 18 3 19 4 21 4 22 5 24 38 26
REMARK H PARENT 38 27 13 30 13 31 15 36 35 38 17 40 20 45 32 51 23 56 24 58
REMARK H PARENT 26 60 26 61 26 62 30 64 30 65
REMARK Flexibility Score: inf
ROOT
ATOM      1  C   UNL     1     -47.843  30.715  24.014  1.00  0.00     0.063 A 
ATOM      2  C   UNL     1     -48.928  30.957  24.865  1.00  0.00    -0.044 A 
ATOM      3  C   UNL     1     -48.841  31.949  25.844  1.00  0.00    -0.019 A 
ATOM      4  C   UNL     1     -47.662  32.675  25.992  1.00  0.00     0.121 A 
ATOM      5  C   UNL     1     -46.579  32.414  25.140  1.00  0.00     0.004 A 
ATOM      6  C   UNL     1     -46.654  31.459  24.116  1.00  0.00     0.048 A 
ATOM      7  H   UNL     1     -49.837  30.369  24.766  1.00  0.00     0.063 H 
ATOM      8  H   UNL     1     -49.711  32.118  26.470  1.00  0.00     0.066 H 
ATOM      9  H   UNL     1     -45.651  32.964  25.294  1.00  0.00     0.068 H 
ENDROOT
BRANCH   1  10
ATOM     10  C   UNL     1     -47.999  29.642  23.011  1.00  0.00     0.255 C 
ATOM     11  O   UNL     1     -47.828  29.925  21.827  1.00  0.00    -0.269 OA
BRANCH  10  12
ATOM     12  N   UNL     1     -48.345  28.363  23.450  1.00  0.00    -0.339 N 
BRANCH  12  13
ATOM     13  C   UNL     1     -49.509  27.619  22.983  1.00  0.00     0.010 C 
ATOM     14  H   UNL     1     -49.539  26.643  23.471  1.00  0.00     0.046 H 
ATOM     15  H   UNL     1     -49.488  27.482  21.900  1.00  0.00     0.046 H 
ATOM     16  H   UNL     1     -50.414  28.179  23.235  1.00  0.00     0.046 H 
ENDBRANCH  12  13
BRANCH  12  17
ATOM     17  C   UNL     1     -47.341  27.632  24.223  1.00  0.00     0.044 C 
ATOM     18  H   UNL     1     -46.564  28.337  24.538  1.00  0.00     0.052 H 
ATOM     19  H   UNL     1     -46.871  26.885  23.572  1.00  0.00     0.052 H 
BRANCH  17  20
ATOM     20  C   UNL     1     -47.950  26.923  25.439  1.00  0.00     0.061 C 
ATOM     21  H   UNL     1     -48.941  26.520  25.210  1.00  0.00     0.058 H 
ATOM     22  H   UNL     1     -47.313  26.093  25.758  1.00  0.00     0.058 H 
BRANCH  20  23
ATOM     23  O   UNL     1     -48.095  27.823  26.542  1.00  0.00    -0.395 OA
ATOM     24  H   UNL     1     -49.042  27.854  26.759  1.00  0.00     0.210 HD
ENDBRANCH  20  23
ENDBRANCH  17  20
ENDBRANCH  12  17
ENDBRANCH  10  12
ENDBRANCH   1  10
BRANCH   6  25
ATOM     25  N   UNL     1     -45.487  31.141  23.405  1.00  0.00    -0.398 N 
ATOM     26  H   UNL     1     -45.630  30.679  22.514  1.00  0.00     0.156 HD
ATOM     27  H   UNL     1     -44.734  30.717  23.948  1.00  0.00     0.156 HD
ENDBRANCH   6  25
BRANCH   4  28
ATOM     28  O   UNL     1     -47.432  33.664  26.909  1.00  0.00    -0.489 OA
BRANCH  28  29
ATOM     29  C   UNL     1     -46.233  34.436  26.798  1.00  0.00     0.115 C 
ATOM     30  H   UNL     1     -46.147  34.725  25.744  1.00  0.00     0.076 H 
ATOM     31  H   UNL     1     -45.350  33.823  27.019  1.00  0.00     0.076 H 
BRANCH  29  32
ATOM     32  C   UNL     1     -46.268  35.705  27.611  1.00  0.00     0.010 A 
ATOM     33  C   UNL     1     -46.412  35.643  28.990  1.00  0.00     0.034 A 
ATOM     34  C   UNL     1     -46.109  36.974  27.035  1.00  0.00    -0.028 A 
ATOM     35  N   UNL     1     -46.437  36.726  29.791  1.00  0.00    -0.262 NA
ATOM     36  H   UNL     1     -46.518  34.694  29.509  1.00  0.00     0.084 H 
ATOM     37  C   UNL     1     -46.134  38.130  27.830  1.00  0.00     0.066 A 
ATOM     38  H   UNL     1     -45.987  37.021  25.959  1.00  0.00     0.065 H 
ATOM     39  C   UNL     1     -46.303  37.941  29.197  1.00  0.00     0.051 A 
ATOM     40  H   UNL     1     -46.323  38.751  29.917  1.00  0.00     0.086 H 
BRANCH  37  41
ATOM     41  N   UNL     1     -45.990  39.434  27.252  1.00  0.00    -0.299 N 
ATOM     42  C   UNL     1     -44.795  39.975  26.803  1.00  0.00     0.021 A 
ATOM     43  C   UNL     1     -46.981  40.392  27.025  1.00  0.00     0.150 A 
ATOM     44  C   UNL     1     -45.013  41.242  26.306  1.00  0.00     0.033 A 
ATOM     45  H   UNL     1     -43.868  39.425  26.861  1.00  0.00     0.083 H 
ATOM     46  C   UNL     1     -46.398  41.527  26.460  1.00  0.00     0.071 A 
ATOM     47  N   UNL     1     -48.295  40.253  27.293  1.00  0.00    -0.218 NA
ATOM     48  C   UNL     1     -47.258  42.610  26.194  1.00  0.00     0.137 A 
ATOM     49  C   UNL     1     -49.014  41.334  26.970  1.00  0.00     0.120 A 
ATOM     50  N   UNL     1     -48.574  42.483  26.442  1.00  0.00    -0.219 NA
ATOM     51  H   UNL     1     -50.081  41.275  27.161  1.00  0.00     0.106 H 
BRANCH  44  52
ATOM     52  C   UNL     1     -43.997  42.119  25.717  1.00  0.00     0.095 A 
ATOM     53  C   UNL     1     -42.813  42.527  26.372  1.00  0.00    -0.016 A 
ATOM     54  N   UNL     1     -44.067  42.611  24.471  1.00  0.00    -0.173 NA
ATOM     55  C   UNL     1     -42.154  43.319  25.461  1.00  0.00     0.025 A 
ATOM     56  H   UNL     1     -42.486  42.288  27.374  1.00  0.00     0.066 H 
ATOM     57  N   UNL     1     -42.942  43.341  24.349  1.00  0.00    -0.275 N 
ATOM     58  H   UNL     1     -41.217  43.855  25.515  1.00  0.00     0.084 H 
BRANCH  57  59
ATOM     59  C   UNL     1     -42.684  44.047  23.117  1.00  0.00     0.030 C 
ATOM     60  H   UNL     1     -41.605  44.122  22.959  1.00  0.00     0.048 H 
ATOM     61  H   UNL     1     -43.143  43.488  22.297  1.00  0.00     0.048 H 
ATOM     62  H   UNL     1     -43.120  45.046  23.195  1.00  0.00     0.048 H 
ENDBRANCH  57  59
ENDBRANCH  44  52
BRANCH  48  63
ATOM     63  N   UNL     1     -46.840  43.827  25.677  1.00  0.00    -0.383 N 
ATOM     64  H   UNL     1     -47.029  43.916  24.676  1.00  0.00     0.158 HD
ATOM     65  H   UNL     1     -47.126  44.597  26.265  1.00  0.00     0.158 HD
ENDBRANCH  48  63
ENDBRANCH  37  41
ENDBRANCH  29  32
ENDBRANCH  28  29
ENDBRANCH   4  28
TORSDOF 14
ENDMDL
MODEL 3
REMARK VINA RESULT:      -8.9      1.435      2.086
REMARK SMILES CN(CCO)C(=O)c1ccc(OCc2cncc(-n3cc(-c4ccn(C)n4)c4c(N)ncnc43)c2)cc1N
REMARK SMILES IDX 8 1 9 2 10 3 11 4 36 5 37 6 6 10 7 11 2 12 1 13 3 17 4 20
REMARK SMILES IDX 5 23 38 25 12 28 13 29 14 32 15 33 35 34 16 35 18 37 17 39
REMARK SMILES IDX 19 41 20 42 34 43 21 44 28 46 33 47 29 48 32 49 31 50 22 52
REMARK SMILES IDX 23 53 27 54 24 55 25 57 26 59 30 63
REMARK H PARENT 9 7 10 8 36 9 1 14 1 15 1 16 3 18 3 19 4 21 4 22 5 24 38 26
REMARK H PARENT 38 27 13 30 13 31 15 36 35 38 17 40 20 45 32 51 23 56 24 58
REMARK H PARENT 26 60 26 61 26 62 30 64 30 65
REMARK Flexibility Score: inf
ROOT
ATOM      1  C   UNL     1     -47.525  30.407  24.141  1.00  0.00     0.063 A 
ATOM      2  C   UNL     1     -48.526  30.509  25.113  1.00  0.00    -0.044 A 
ATOM      3  C   UNL     1     -48.494  31.548  26.045  1.00  0.00    -0.019 A 
ATOM      4  C   UNL     1     -47.445  32.464  26.024  1.00  0.00     0.121 A 
ATOM      5  C   UNL     1     -46.441  32.343  25.052  1.00  0.00     0.004 A 
ATOM      6  C   UNL     1     -46.474  31.340  24.074  1.00  0.00     0.048 A 
ATOM      7  H   UNL     1     -49.329  29.774  25.146  1.00  0.00     0.063 H 
ATOM      8  H   UNL     1     -49.300  31.602  26.770  1.00  0.00     0.066 H 
ATOM      9  H   UNL     1     -45.609  33.045  25.073  1.00  0.00     0.068 H 
ENDROOT
BRANCH   1  10
ATOM     10  C   UNL     1     -47.614  29.274  23.197  1.00  0.00     0.255 C 
ATOM     11  O   UNL     1     -46.768  28.385  23.275  1.00  0.00    -0.269 OA
BRANCH  10  12
ATOM     12  N   UNL     1     -48.642  29.270  22.253  1.00  0.00    -0.339 N 
BRANCH  12  13
ATOM     13  C   UNL     1     -49.617  28.197  22.103  1.00  0.00     0.010 C 
ATOM     14  H   UNL     1     -50.319  28.450  21.305  1.00  0.00     0.046 H 
ATOM     15  H   UNL     1     -50.169  28.024  23.029  1.00  0.00     0.046 H 
ATOM     16  H   UNL     1     -49.093  27.272  21.845  1.00  0.00     0.046 H 
ENDBRANCH  12  13
BRANCH  12  17
ATOM     17  C   UNL     1     -48.908  30.529  21.556  1.00  0.00     0.044 C 
ATOM     18  H   UNL     1     -48.953  30.328  20.480  1.00  0.00     0.052 H 
ATOM     19  H   UNL     1     -48.071  31.213  21.735  1.00  0.00     0.052 H 
BRANCH  17  20
ATOM     20  C   UNL     1     -50.206  31.191  22.035  1.00  0.00     0.061 C 
ATOM     21  H   UNL     1     -51.061  30.518  21.928  1.00  0.00     0.058 H 
ATOM     22  H   UNL     1     -50.127  31.472  23.090  1.00  0.00     0.058 H 
BRANCH  20  23
ATOM     23  O   UNL     1     -50.491  32.374  21.281  1.00  0.00    -0.395 OA
ATOM     24  H   UNL     1     -51.402  32.634  21.496  1.00  0.00     0.210 HD
ENDBRANCH  20  23
ENDBRANCH  17  20
ENDBRANCH  12  17
ENDBRANCH  10  12
ENDBRANCH   1  10
BRANCH   6  25
ATOM     25  N   UNL     1     -45.363  31.184  23.232  1.00  0.00    -0.398 N 
ATOM     26  H   UNL     1     -45.418  30.417  22.571  1.00  0.00     0.156 HD
ATOM     27  H   UNL     1     -44.449  31.245  23.682  1.00  0.00     0.156 HD
ENDBRANCH   6  25
BRANCH   4  28
ATOM     28  O   UNL     1     -47.279  33.522  26.877  1.00  0.00    -0.489 OA
BRANCH  28  29
ATOM     29  C   UNL     1     -46.209  34.438  26.632  1.00  0.00     0.115 C 
ATOM     30  H   UNL     1     -46.421  34.911  25.665  1.00  0.00     0.076 H 
ATOM     31  H   UNL     1     -45.257  33.906  26.509  1.00  0.00     0.076 H 
BRANCH  29  32
ATOM     32  C   UNL     1     -46.122  35.537  27.660  1.00  0.00     0.010 A 
ATOM     33  C   UNL     1     -46.577  35.316  28.952  1.00  0.00     0.034 A 
ATOM     34  C   UNL     1     -45.546  36.786  27.383  1.00  0.00    -0.028 A 
ATOM     35  N   UNL     1     -46.522  36.237  29.934  1.00  0.00    -0.262 NA
ATOM     36  H   UNL     1     -47.015  34.367  29.247  1.00  0.00     0.084 H 
ATOM     37  C   UNL     1     -45.473  37.777  28.373  1.00  0.00     0.066 A 
ATOM     38  H   UNL     1     -45.183  36.954  26.375  1.00  0.00     0.065 H 
ATOM     39  C   UNL     1     -45.979  37.444  29.625  1.00  0.00     0.051 A 
ATOM     40  H   UNL     1     -45.966  38.116  30.475  1.00  0.00     0.086 H 
BRANCH  37  41
ATOM     41  N   UNL     1     -44.902  39.063  28.097  1.00  0.00    -0.299 N 
ATOM     42  C   UNL     1     -45.296  39.901  27.066  1.00  0.00     0.021 A 
ATOM     43  C   UNL     1     -43.875  39.715  28.783  1.00  0.00     0.150 A 
ATOM     44  C   UNL     1     -44.541  41.055  27.087  1.00  0.00     0.033 A 
ATOM     45  H   UNL     1     -46.088  39.627  26.385  1.00  0.00     0.083 H 
ATOM     46  C   UNL     1     -43.619  40.941  28.165  1.00  0.00     0.071 A 
ATOM     47  N   UNL     1     -43.231  39.254  29.874  1.00  0.00    -0.218 NA
ATOM     48  C   UNL     1     -42.583  41.719  28.714  1.00  0.00     0.137 A 
ATOM     49  C   UNL     1     -42.290  40.093  30.322  1.00  0.00     0.120 A 
ATOM     50  N   UNL     1     -41.940  41.281  29.812  1.00  0.00    -0.219 NA
ATOM     51  H   UNL     1     -41.743  39.774  31.203  1.00  0.00     0.106 H 
BRANCH  44  52
ATOM     52  C   UNL     1     -44.683  42.190  26.172  1.00  0.00     0.095 A 
ATOM     53  C   UNL     1     -44.433  42.134  24.781  1.00  0.00    -0.016 A 
ATOM     54  N   UNL     1     -45.097  43.408  26.550  1.00  0.00    -0.173 NA
ATOM     55  C   UNL     1     -44.703  43.401  24.318  1.00  0.00     0.025 A 
ATOM     56  H   UNL     1     -44.094  41.292  24.195  1.00  0.00     0.066 H 
ATOM     57  N   UNL     1     -45.089  44.122  25.408  1.00  0.00    -0.275 N 
ATOM     58  H   UNL     1     -44.648  43.834  23.329  1.00  0.00     0.084 H 
BRANCH  57  59
ATOM     59  C   UNL     1     -45.469  45.514  25.437  1.00  0.00     0.030 C 
ATOM     60  H   UNL     1     -46.210  45.706  24.657  1.00  0.00     0.048 H 
ATOM     61  H   UNL     1     -45.896  45.733  26.419  1.00  0.00     0.048 H 
ATOM     62  H   UNL     1     -44.575  46.117  25.262  1.00  0.00     0.048 H 
ENDBRANCH  57  59
ENDBRANCH  44  52
BRANCH  48  63
ATOM     63  N   UNL     1     -42.168  42.937  28.199  1.00  0.00    -0.383 N 
ATOM     64  H   UNL     1     -42.537  43.734  28.724  1.00  0.00     0.158 HD
ATOM     65  H   UNL     1     -41.176  42.940  28.006  1.00  0.00     0.158 HD
ENDBRANCH  48  63
ENDBRANCH  37  41
ENDBRANCH  29  32
ENDBRANCH  28  29
ENDBRANCH   4  28
TORSDOF 14
ENDMDL
MODEL 4
REMARK VINA RESULT:      -8.7      1.621      2.252
REMARK SMILES CN(CCO)C(=O)c1ccc(OCc2cncc(-n3cc(-c4ccn(C)n4)c4c(N)ncnc43)c2)cc1N
REMARK SMILES IDX 8 1 9 2 10 3 11 4 36 5 37 6 6 10 7 11 2 12 1 13 3 17 4 20
REMARK SMILES IDX 5 23 38 25 12 28 13 29 14 32 15 33 35 34 16 35 18 37 17 39
REMARK SMILES IDX 19 41 20 42 34 43 21 44 28 46 33 47 29 48 32 49 31 50 22 52
REMARK SMILES IDX 23 53 27 54 24 55 25 57 26 59 30 63
REMARK H PARENT 9 7 10 8 36 9 1 14 1 15 1 16 3 18 3 19 4 21 4 22 5 24 38 26
REMARK H PARENT 38 27 13 30 13 31 15 36 35 38 17 40 20 45 32 51 23 56 24 58
REMARK H PARENT 26 60 26 61 26 62 30 64 30 65
REMARK Flexibility Score: inf
ROOT
ATOM      1  C   UNL     1     -48.136  31.952  24.716  1.00  0.00     0.063 A 
ATOM      2  C   UNL     1     -49.351  32.401  25.246  1.00  0.00    -0.044 A 
ATOM      3  C   UNL     1     -49.367  33.446  26.172  1.00  0.00    -0.019 A 
ATOM      4  C   UNL     1     -48.168  34.019  26.589  1.00  0.00     0.121 A 
ATOM      5  C   UNL     1     -46.957  33.552  26.059  1.00  0.00     0.004 A 
ATOM      6  C   UNL     1     -46.914  32.537  25.092  1.00  0.00     0.048 A 
ATOM      7  H   UNL     1     -50.284  31.932  24.940  1.00  0.00     0.063 H 
ATOM      8  H   UNL     1     -50.331  33.777  26.544  1.00  0.00     0.066 H 
ATOM      9  H   UNL     1     -46.027  33.984  26.424  1.00  0.00     0.068 H 
ENDROOT
BRANCH   1  10
ATOM     10  C   UNL     1     -48.193  30.833  23.753  1.00  0.00     0.255 C 
ATOM     11  O   UNL     1     -47.562  30.938  22.703  1.00  0.00    -0.269 OA
BRANCH  10  12
ATOM     12  N   UNL     1     -48.969  29.717  24.071  1.00  0.00    -0.339 N 
BRANCH  12  13
ATOM     13  C   UNL     1     -50.186  29.333  23.366  1.00  0.00     0.010 C 
ATOM     14  H   UNL     1     -50.034  28.370  22.874  1.00  0.00     0.046 H 
ATOM     15  H   UNL     1     -50.470  30.079  22.622  1.00  0.00     0.046 H 
ATOM     16  H   UNL     1     -51.004  29.247  24.087  1.00  0.00     0.046 H 
ENDBRANCH  12  13
BRANCH  12  17
ATOM     17  C   UNL     1     -48.383  28.742  24.991  1.00  0.00     0.044 C 
ATOM     18  H   UNL     1     -49.183  28.330  25.617  1.00  0.00     0.052 H 
ATOM     19  H   UNL     1     -47.676  29.259  25.648  1.00  0.00     0.052 H 
BRANCH  17  20
ATOM     20  C   UNL     1     -47.647  27.617  24.251  1.00  0.00     0.061 C 
ATOM     21  H   UNL     1     -47.954  27.563  23.202  1.00  0.00     0.058 H 
ATOM     22  H   UNL     1     -46.566  27.784  24.278  1.00  0.00     0.058 H 
BRANCH  20  23
ATOM     23  O   UNL     1     -47.917  26.345  24.846  1.00  0.00    -0.395 OA
ATOM     24  H   UNL     1     -48.696  26.459  25.417  1.00  0.00     0.210 HD
ENDBRANCH  20  23
ENDBRANCH  17  20
ENDBRANCH  12  17
ENDBRANCH  10  12
ENDBRANCH   1  10
BRANCH   6  25
ATOM     25  N   UNL     1     -45.667  32.013  24.721  1.00  0.00    -0.398 N 
ATOM     26  H   UNL     1     -45.213  31.429  25.414  1.00  0.00     0.156 HD
ATOM     27  H   UNL     1     -45.020  32.669  24.280  1.00  0.00     0.156 HD
ENDBRANCH   6  25
BRANCH   4  28
ATOM     28  O   UNL     1     -48.031  35.039  27.492  1.00  0.00    -0.489 OA
BRANCH  28  29
ATOM     29  C   UNL     1     -46.846  35.839  27.448  1.00  0.00     0.115 C 
ATOM     30  H   UNL     1     -46.374  35.639  26.478  1.00  0.00     0.076 H 
ATOM     31  H   UNL     1     -46.126  35.517  28.210  1.00  0.00     0.076 H 
BRANCH  29  32
ATOM     32  C   UNL     1     -47.128  37.319  27.514  1.00  0.00     0.010 A 
ATOM     33  C   UNL     1     -48.320  37.775  28.056  1.00  0.00     0.034 A 
ATOM     34  C   UNL     1     -46.201  38.282  27.089  1.00  0.00    -0.028 A 
ATOM     35  N   UNL     1     -48.644  39.078  28.168  1.00  0.00    -0.262 NA
ATOM     36  H   UNL     1     -49.077  37.088  28.427  1.00  0.00     0.084 H 
ATOM     37  C   UNL     1     -46.498  39.651  27.180  1.00  0.00     0.066 A 
ATOM     38  H   UNL     1     -45.266  37.925  26.673  1.00  0.00     0.065 H 
ATOM     39  C   UNL     1     -47.733  39.984  27.725  1.00  0.00     0.051 A 
ATOM     40  H   UNL     1     -48.072  41.004  27.864  1.00  0.00     0.086 H 
BRANCH  37  41
ATOM     41  N   UNL     1     -45.566  40.645  26.734  1.00  0.00    -0.299 N 
ATOM     42  C   UNL     1     -45.742  41.454  25.622  1.00  0.00     0.021 A 
ATOM     43  C   UNL     1     -44.339  40.994  27.303  1.00  0.00     0.150 A 
ATOM     44  C   UNL     1     -44.658  42.295  25.481  1.00  0.00     0.033 A 
ATOM     45  H   UNL     1     -46.625  41.384  25.005  1.00  0.00     0.083 H 
ATOM     46  C   UNL     1     -43.749  41.999  26.534  1.00  0.00     0.071 A 
ATOM     47  N   UNL     1     -43.803  40.464  28.421  1.00  0.00    -0.218 NA
ATOM     48  C   UNL     1     -42.482  42.450  26.953  1.00  0.00     0.137 A 
ATOM     49  C   UNL     1     -42.615  40.993  28.734  1.00  0.00     0.120 A 
ATOM     50  N   UNL     1     -41.939  41.942  28.074  1.00  0.00    -0.219 NA
ATOM     51  H   UNL     1     -42.139  40.605  29.629  1.00  0.00     0.106 H 
BRANCH  44  52
ATOM     52  C   UNL     1     -44.493  43.314  24.440  1.00  0.00     0.095 A 
ATOM     53  C   UNL     1     -45.415  44.355  24.185  1.00  0.00    -0.016 A 
ATOM     54  N   UNL     1     -43.428  43.388  23.630  1.00  0.00    -0.173 NA
ATOM     55  C   UNL     1     -44.863  45.076  23.152  1.00  0.00     0.025 A 
ATOM     56  H   UNL     1     -46.356  44.552  24.678  1.00  0.00     0.066 H 
ATOM     57  N   UNL     1     -43.685  44.459  22.854  1.00  0.00    -0.275 N 
ATOM     58  H   UNL     1     -45.208  45.950  22.618  1.00  0.00     0.084 H 
BRANCH  57  59
ATOM     59  C   UNL     1     -42.742  44.837  21.829  1.00  0.00     0.030 C 
ATOM     60  H   UNL     1     -41.797  45.130  22.294  1.00  0.00     0.048 H 
ATOM     61  H   UNL     1     -42.585  43.977  21.172  1.00  0.00     0.048 H 
ATOM     62  H   UNL     1     -43.161  45.678  21.271  1.00  0.00     0.048 H 
ENDBRANCH  57  59
ENDBRANCH  44  52
BRANCH  48  63
ATOM     63  N   UNL     1     -41.736  43.406  26.282  1.00  0.00    -0.383 N 
ATOM     64  H   UNL     1     -41.800  44.331  26.715  1.00  0.00     0.158 HD
ATOM     65  H   UNL     1     -40.809  43.068  26.064  1.00  0.00     0.158 HD
ENDBRANCH  48  63
ENDBRANCH  37  41
ENDBRANCH  29  32
ENDBRANCH  28  29
ENDBRANCH   4  28
TORSDOF 14
ENDMDL
MODEL 5
REMARK VINA RESULT:      -8.5      1.995      2.940
REMARK SMILES CN(CCO)C(=O)c1ccc(OCc2cncc(-n3cc(-c4ccn(C)n4)c4c(N)ncnc43)c2)cc1N
REMARK SMILES IDX 8 1 9 2 10 3 11 4 36 5 37 6 6 10 7 11 2 12 1 13 3 17 4 20
REMARK SMILES IDX 5 23 38 25 12 28 13 29 14 32 15 33 35 34 16 35 18 37 17 39
REMARK SMILES IDX 19 41 20 42 34 43 21 44 28 46 33 47 29 48 32 49 31 50 22 52
REMARK SMILES IDX 23 53 27 54 24 55 25 57 26 59 30 63
REMARK H PARENT 9 7 10 8 36 9 1 14 1 15 1 16 3 18 3 19 4 21 4 22 5 24 38 26
REMARK H PARENT 38 27 13 30 13 31 15 36 35 38 17 40 20 45 32 51 23 56 24 58
REMARK H PARENT 26 60 26 61 26 62 30 64 30 65
REMARK Flexibility Score: inf
ROOT
ATOM      1  C   UNL     1     -48.722  29.292  24.649  1.00  0.00     0.063 A 
ATOM      2  C   UNL     1     -49.072  30.177  23.622  1.00  0.00    -0.044 A 
ATOM      3  C   UNL     1     -49.139  31.549  23.873  1.00  0.00    -0.019 A 
ATOM      4  C   UNL     1     -48.887  32.031  25.155  1.00  0.00     0.121 A 
ATOM      5  C   UNL     1     -48.549  31.133  26.177  1.00  0.00     0.004 A 
ATOM      6  C   UNL     1     -48.426  29.756  25.943  1.00  0.00     0.048 A 
ATOM      7  H   UNL     1     -49.298  29.795  22.629  1.00  0.00     0.063 H 
ATOM      8  H   UNL     1     -49.396  32.202  23.046  1.00  0.00     0.066 H 
ATOM      9  H   UNL     1     -48.392  31.522  27.182  1.00  0.00     0.068 H 
ENDROOT
BRANCH   1  10
ATOM     10  C   UNL     1     -48.686  27.854  24.316  1.00  0.00     0.255 C 
ATOM     11  O   UNL     1     -47.627  27.380  23.907  1.00  0.00    -0.269 OA
BRANCH  10  12
ATOM     12  N   UNL     1     -49.853  27.103  24.467  1.00  0.00    -0.339 N 
BRANCH  12  13
ATOM     13  C   UNL     1     -50.247  26.435  25.701  1.00  0.00     0.010 C 
ATOM     14  H   UNL     1     -50.581  27.178  26.428  1.00  0.00     0.046 H 
ATOM     15  H   UNL     1     -49.424  25.857  26.125  1.00  0.00     0.046 H 
ATOM     16  H   UNL     1     -51.068  25.744  25.486  1.00  0.00     0.046 H 
ENDBRANCH  12  13
BRANCH  12  17
ATOM     17  C   UNL     1     -50.854  27.213  23.407  1.00  0.00     0.044 C 
ATOM     18  H   UNL     1     -50.846  26.286  22.823  1.00  0.00     0.052 H 
ATOM     19  H   UNL     1     -50.569  28.033  22.738  1.00  0.00     0.052 H 
BRANCH  17  20
ATOM     20  C   UNL     1     -52.258  27.487  23.963  1.00  0.00     0.061 C 
ATOM     21  H   UNL     1     -53.031  27.252  23.227  1.00  0.00     0.058 H 
ATOM     22  H   UNL     1     -52.442  26.879  24.854  1.00  0.00     0.058 H 
BRANCH  20  23
ATOM     23  O   UNL     1     -52.409  28.863  24.325  1.00  0.00    -0.395 OA
ATOM     24  H   UNL     1     -52.068  28.957  25.230  1.00  0.00     0.210 HD
ENDBRANCH  20  23
ENDBRANCH  17  20
ENDBRANCH  12  17
ENDBRANCH  10  12
ENDBRANCH   1  10
BRANCH   6  25
ATOM     25  N   UNL     1     -48.237  28.901  27.039  1.00  0.00    -0.398 N 
ATOM     26  H   UNL     1     -48.065  29.359  27.928  1.00  0.00     0.156 HD
ATOM     27  H   UNL     1     -47.617  28.105  26.884  1.00  0.00     0.156 HD
ENDBRANCH   6  25
BRANCH   4  28
ATOM     28  O   UNL     1     -48.925  33.342  25.547  1.00  0.00    -0.489 OA
BRANCH  28  29
ATOM     29  C   UNL     1     -47.723  33.947  26.033  1.00  0.00     0.115 C 
ATOM     30  H   UNL     1     -47.094  34.136  25.155  1.00  0.00     0.076 H 
ATOM     31  H   UNL     1     -47.162  33.249  26.667  1.00  0.00     0.076 H 
BRANCH  29  32
ATOM     32  C   UNL     1     -47.959  35.273  26.711  1.00  0.00     0.010 A 
ATOM     33  C   UNL     1     -49.172  35.528  27.335  1.00  0.00     0.034 A 
ATOM     34  C   UNL     1     -46.973  36.267  26.787  1.00  0.00    -0.028 A 
ATOM     35  N   UNL     1     -49.459  36.677  27.975  1.00  0.00    -0.262 NA
ATOM     36  H   UNL     1     -49.976  34.796  27.337  1.00  0.00     0.084 H 
ATOM     37  C   UNL     1     -47.229  37.483  27.439  1.00  0.00     0.066 A 
ATOM     38  H   UNL     1     -46.022  36.063  26.307  1.00  0.00     0.065 H 
ATOM     39  C   UNL     1     -48.488  37.628  28.010  1.00  0.00     0.051 A 
ATOM     40  H   UNL     1     -48.802  38.512  28.554  1.00  0.00     0.086 H 
BRANCH  37  41
ATOM     41  N   UNL     1     -46.235  38.514  27.508  1.00  0.00    -0.299 N 
ATOM     42  C   UNL     1     -46.075  39.525  26.575  1.00  0.00     0.021 A 
ATOM     43  C   UNL     1     -45.262  38.708  28.492  1.00  0.00     0.150 A 
ATOM     44  C   UNL     1     -45.028  40.342  26.947  1.00  0.00     0.033 A 
ATOM     45  H   UNL     1     -46.715  39.603  25.709  1.00  0.00     0.083 H 
ATOM     46  C   UNL     1     -44.490  39.821  28.156  1.00  0.00     0.071 A 
ATOM     47  N   UNL     1     -45.091  37.957  29.599  1.00  0.00    -0.218 NA
ATOM     48  C   UNL     1     -43.435  40.143  29.031  1.00  0.00     0.137 A 
ATOM     49  C   UNL     1     -44.079  38.378  30.366  1.00  0.00     0.120 A 
ATOM     50  N   UNL     1     -43.259  39.413  30.148  1.00  0.00    -0.219 NA
ATOM     51  H   UNL     1     -43.899  37.811  31.274  1.00  0.00     0.106 H 
BRANCH  44  52
ATOM     52  C   UNL     1     -44.573  41.535  26.227  1.00  0.00     0.095 A 
ATOM     53  C   UNL     1     -45.432  42.520  25.686  1.00  0.00    -0.016 A 
ATOM     54  N   UNL     1     -43.284  41.840  26.026  1.00  0.00    -0.173 NA
ATOM     55  C   UNL     1     -44.594  43.453  25.120  1.00  0.00     0.025 A 
ATOM     56  H   UNL     1     -46.512  42.546  25.697  1.00  0.00     0.066 H 
ATOM     57  N   UNL     1     -43.328  43.002  25.344  1.00  0.00    -0.275 N 
ATOM     58  H   UNL     1     -44.794  44.373  24.589  1.00  0.00     0.084 H 
BRANCH  57  59
ATOM     59  C   UNL     1     -42.097  43.631  24.933  1.00  0.00     0.030 C 
ATOM     60  H   UNL     1     -41.358  43.545  25.734  1.00  0.00     0.048 H 
ATOM     61  H   UNL     1     -41.735  43.125  24.034  1.00  0.00     0.048 H 
ATOM     62  H   UNL     1     -42.302  44.685  24.725  1.00  0.00     0.048 H 
ENDBRANCH  57  59
ENDBRANCH  44  52
BRANCH  48  63
ATOM     63  N   UNL     1     -42.545  41.186  28.826  1.00  0.00    -0.383 N 
ATOM     64  H   UNL     1     -42.241  41.259  27.852  1.00  0.00     0.158 HD
ATOM     65  H   UNL     1     -42.861  42.037  29.270  1.00  0.00     0.158 HD
ENDBRANCH  48  63
ENDBRANCH  37  41
ENDBRANCH  29  32
ENDBRANCH  28  29
ENDBRANCH   4  28
TORSDOF 14
ENDMDL
MODEL 6
REMARK VINA RESULT:      -8.3      2.020      3.057
REMARK SMILES CN(CCO)C(=O)c1ccc(OCc2cncc(-n3cc(-c4ccn(C)n4)c4c(N)ncnc43)c2)cc1N
REMARK SMILES IDX 8 1 9 2 10 3 11 4 36 5 37 6 6 10 7 11 2 12 1 13 3 17 4 20
REMARK SMILES IDX 5 23 38 25 12 28 13 29 14 32 15 33 35 34 16 35 18 37 17 39
REMARK SMILES IDX 19 41 20 42 34 43 21 44 28 46 33 47 29 48 32 49 31 50 22 52
REMARK SMILES IDX 23 53 27 54 24 55 25 57 26 59 30 63
REMARK H PARENT 9 7 10 8 36 9 1 14 1 15 1 16 3 18 3 19 4 21 4 22 5 24 38 26
REMARK H PARENT 38 27 13 30 13 31 15 36 35 38 17 40 20 45 32 51 23 56 24 58
REMARK H PARENT 26 60 26 61 26 62 30 64 30 65
REMARK Flexibility Score: inf
ROOT
ATOM      1  C   UNL     1     -47.420  30.496  24.339  1.00  0.00     0.063 A 
ATOM      2  C   UNL     1     -46.826  31.695  23.928  1.00  0.00    -0.044 A 
ATOM      3  C   UNL     1     -46.816  32.800  24.783  1.00  0.00    -0.019 A 
ATOM      4  C   UNL     1     -47.427  32.714  26.032  1.00  0.00     0.121 A 
ATOM      5  C   UNL     1     -48.029  31.511  26.426  1.00  0.00     0.004 A 
ATOM      6  C   UNL     1     -48.011  30.371  25.609  1.00  0.00     0.048 A 
ATOM      7  H   UNL     1     -46.376  31.768  22.941  1.00  0.00     0.063 H 
ATOM      8  H   UNL     1     -46.329  33.704  24.433  1.00  0.00     0.066 H 
ATOM      9  H   UNL     1     -48.535  31.472  27.389  1.00  0.00     0.068 H 
ENDROOT
BRANCH   1  10
ATOM     10  C   UNL     1     -47.407  29.374  23.379  1.00  0.00     0.255 C 
ATOM     11  O   UNL     1     -46.489  28.559  23.451  1.00  0.00    -0.269 OA
BRANCH  10  12
ATOM     12  N   UNL     1     -48.425  29.296  22.428  1.00  0.00    -0.339 N 
BRANCH  12  13
ATOM     13  C   UNL     1     -49.822  29.017  22.738  1.00  0.00     0.010 C 
ATOM     14  H   UNL     1     -50.367  29.957  22.844  1.00  0.00     0.046 H 
ATOM     15  H   UNL     1     -49.919  28.436  23.658  1.00  0.00     0.046 H 
ATOM     16  H   UNL     1     -50.259  28.433  21.923  1.00  0.00     0.046 H 
ENDBRANCH  12  13
BRANCH  12  17
ATOM     17  C   UNL     1     -48.114  29.778  21.082  1.00  0.00     0.044 C 
ATOM     18  H   UNL     1     -47.986  28.912  20.423  1.00  0.00     0.052 H 
ATOM     19  H   UNL     1     -47.161  30.318  21.113  1.00  0.00     0.052 H 
BRANCH  17  20
ATOM     20  C   UNL     1     -49.202  30.713  20.537  1.00  0.00     0.061 C 
ATOM     21  H   UNL     1     -49.686  30.289  19.653  1.00  0.00     0.058 H 
ATOM     22  H   UNL     1     -49.972  30.887  21.295  1.00  0.00     0.058 H 
BRANCH  20  23
ATOM     23  O   UNL     1     -48.652  31.980  20.162  1.00  0.00    -0.395 OA
ATOM     24  H   UNL     1     -49.317  32.424  19.609  1.00  0.00     0.210 HD
ENDBRANCH  20  23
ENDBRANCH  17  20
ENDBRANCH  12  17
ENDBRANCH  10  12
ENDBRANCH   1  10
BRANCH   6  25
ATOM     25  N   UNL     1     -48.762  29.252  25.998  1.00  0.00    -0.398 N 
ATOM     26  H   UNL     1     -49.547  29.443  26.612  1.00  0.00     0.156 HD
ATOM     27  H   UNL     1     -48.227  28.435  26.293  1.00  0.00     0.156 HD
ENDBRANCH   6  25
BRANCH   4  28
ATOM     28  O   UNL     1     -47.502  33.714  26.964  1.00  0.00    -0.489 OA
BRANCH  28  29
ATOM     29  C   UNL     1     -47.802  35.041  26.523  1.00  0.00     0.115 C 
ATOM     30  H   UNL     1     -48.840  35.239  26.819  1.00  0.00     0.076 H 
ATOM     31  H   UNL     1     -47.781  35.104  25.427  1.00  0.00     0.076 H 
BRANCH  29  32
ATOM     32  C   UNL     1     -46.940  36.092  27.175  1.00  0.00     0.010 A 
ATOM     33  C   UNL     1     -46.188  35.774  28.296  1.00  0.00     0.034 A 
ATOM     34  C   UNL     1     -46.819  37.392  26.663  1.00  0.00    -0.028 A 
ATOM     35  N   UNL     1     -45.380  36.647  28.929  1.00  0.00    -0.262 NA
ATOM     36  H   UNL     1     -46.212  34.780  28.736  1.00  0.00     0.084 H 
ATOM     37  C   UNL     1     -45.995  38.337  27.294  1.00  0.00     0.066 A 
ATOM     38  H   UNL     1     -47.401  37.636  25.781  1.00  0.00     0.065 H 
ATOM     39  C   UNL     1     -45.304  37.905  28.421  1.00  0.00     0.051 A 
ATOM     40  H   UNL     1     -44.625  38.533  28.985  1.00  0.00     0.086 H 
BRANCH  37  41
ATOM     41  N   UNL     1     -45.876  39.674  26.790  1.00  0.00    -0.299 N 
ATOM     42  C   UNL     1     -44.714  40.228  26.278  1.00  0.00     0.021 A 
ATOM     43  C   UNL     1     -46.866  40.656  26.711  1.00  0.00     0.150 A 
ATOM     44  C   UNL     1     -44.950  41.528  25.885  1.00  0.00     0.033 A 
ATOM     45  H   UNL     1     -43.795  39.664  26.222  1.00  0.00     0.083 H 
ATOM     46  C   UNL     1     -46.313  41.819  26.173  1.00  0.00     0.071 A 
ATOM     47  N   UNL     1     -48.155  40.516  27.080  1.00  0.00    -0.218 NA
ATOM     48  C   UNL     1     -47.172  42.928  26.052  1.00  0.00     0.137 A 
ATOM     49  C   UNL     1     -48.879  41.625  26.890  1.00  0.00     0.120 A 
ATOM     50  N   UNL     1     -48.465  42.801  26.401  1.00  0.00    -0.219 NA
ATOM     51  H   UNL     1     -49.927  41.566  27.166  1.00  0.00     0.106 H 
BRANCH  44  52
ATOM     52  C   UNL     1     -43.972  42.430  25.269  1.00  0.00     0.095 A 
ATOM     53  C   UNL     1     -42.775  42.857  25.889  1.00  0.00    -0.016 A 
ATOM     54  N   UNL     1     -44.092  42.929  24.031  1.00  0.00    -0.173 NA
ATOM     55  C   UNL     1     -42.162  43.668  24.963  1.00  0.00     0.025 A 
ATOM     56  H   UNL     1     -42.411  42.617  26.878  1.00  0.00     0.066 H 
ATOM     57  N   UNL     1     -42.986  43.683  23.878  1.00  0.00    -0.275 N 
ATOM     58  H   UNL     1     -41.235  44.222  24.991  1.00  0.00     0.084 H 
BRANCH  57  59
ATOM     59  C   UNL     1     -42.783  44.403  22.643  1.00  0.00     0.030 C 
ATOM     60  H   UNL     1     -42.063  43.863  22.022  1.00  0.00     0.048 H 
ATOM     61  H   UNL     1     -43.743  44.476  22.126  1.00  0.00     0.048 H 
ATOM     62  H   UNL     1     -42.398  45.397  22.885  1.00  0.00     0.048 H 
ENDBRANCH  57  59
ENDBRANCH  44  52
BRANCH  48  63
ATOM     63  N   UNL     1     -46.778  44.170  25.581  1.00  0.00    -0.383 N 
ATOM     64  H   UNL     1     -47.568  44.750  25.287  1.00  0.00     0.158 HD
ATOM     65  H   UNL     1     -46.101  44.602  26.195  1.00  0.00     0.158 HD
ENDBRANCH  48  63
ENDBRANCH  37  41
ENDBRANCH  29  32
ENDBRANCH  28  29
ENDBRANCH   4  28
TORSDOF 14
ENDMDL
MODEL 7
REMARK VINA RESULT:      -8.1      3.198     12.048
REMARK SMILES CN(CCO)C(=O)c1ccc(OCc2cncc(-n3cc(-c4ccn(C)n4)c4c(N)ncnc43)c2)cc1N
REMARK SMILES IDX 8 1 9 2 10 3 11 4 36 5 37 6 6 10 7 11 2 12 1 13 3 17 4 20
REMARK SMILES IDX 5 23 38 25 12 28 13 29 14 32 15 33 35 34 16 35 18 37 17 39
REMARK SMILES IDX 19 41 20 42 34 43 21 44 28 46 33 47 29 48 32 49 31 50 22 52
REMARK SMILES IDX 23 53 27 54 24 55 25 57 26 59 30 63
REMARK H PARENT 9 7 10 8 36 9 1 14 1 15 1 16 3 18 3 19 4 21 4 22 5 24 38 26
REMARK H PARENT 38 27 13 30 13 31 15 36 35 38 17 40 20 45 32 51 23 56 24 58
REMARK H PARENT 26 60 26 61 26 62 30 64 30 65
REMARK Flexibility Score: inf
ROOT
ATOM      1  C   UNL     1     -44.994  41.374  26.694  1.00  0.00     0.063 A 
ATOM      2  C   UNL     1     -44.312  40.212  27.071  1.00  0.00    -0.044 A 
ATOM      3  C   UNL     1     -45.002  39.004  27.195  1.00  0.00    -0.019 A 
ATOM      4  C   UNL     1     -46.377  38.967  26.972  1.00  0.00     0.121 A 
ATOM      5  C   UNL     1     -47.050  40.141  26.606  1.00  0.00     0.004 A 
ATOM      6  C   UNL     1     -46.375  41.357  26.427  1.00  0.00     0.048 A 
ATOM      7  H   UNL     1     -43.244  40.250  27.273  1.00  0.00     0.063 H 
ATOM      8  H   UNL     1     -44.433  38.123  27.470  1.00  0.00     0.066 H 
ATOM      9  H   UNL     1     -48.130  40.102  26.474  1.00  0.00     0.068 H 
ENDROOT
BRANCH   1  10
ATOM     10  C   UNL     1     -44.204  42.619  26.598  1.00  0.00     0.255 C 
ATOM     11  O   UNL     1     -44.173  43.364  27.576  1.00  0.00    -0.269 OA
BRANCH  10  12
ATOM     12  N   UNL     1     -43.541  42.899  25.402  1.00  0.00    -0.339 N 
BRANCH  12  13
ATOM     13  C   UNL     1     -44.076  42.609  24.077  1.00  0.00     0.010 C 
ATOM     14  H   UNL     1     -44.843  41.835  24.154  1.00  0.00     0.046 H 
ATOM     15  H   UNL     1     -43.293  42.276  23.393  1.00  0.00     0.046 H 
ATOM     16  H   UNL     1     -44.520  43.520  23.664  1.00  0.00     0.046 H 
ENDBRANCH  12  13
BRANCH  12  17
ATOM     17  C   UNL     1     -42.365  43.764  25.482  1.00  0.00     0.044 C 
ATOM     18  H   UNL     1     -42.320  44.198  26.487  1.00  0.00     0.052 H 
ATOM     19  H   UNL     1     -42.484  44.587  24.767  1.00  0.00     0.052 H 
BRANCH  17  20
ATOM     20  C   UNL     1     -41.068  43.009  25.164  1.00  0.00     0.061 C 
ATOM     21  H   UNL     1     -41.214  42.290  24.352  1.00  0.00     0.058 H 
ATOM     22  H   UNL     1     -40.282  43.707  24.859  1.00  0.00     0.058 H 
BRANCH  20  23
ATOM     23  O   UNL     1     -40.601  42.283  26.305  1.00  0.00    -0.395 OA
ATOM     24  H   UNL     1     -39.668  42.526  26.432  1.00  0.00     0.210 HD
ENDBRANCH  20  23
ENDBRANCH  17  20
ENDBRANCH  12  17
ENDBRANCH  10  12
ENDBRANCH   1  10
BRANCH   6  25
ATOM     25  N   UNL     1     -47.129  42.520  26.214  1.00  0.00    -0.398 N 
ATOM     26  H   UNL     1     -47.095  43.208  26.958  1.00  0.00     0.156 HD
ATOM     27  H   UNL     1     -48.075  42.380  25.855  1.00  0.00     0.156 HD
ENDBRANCH   6  25
BRANCH   4  28
ATOM     28  O   UNL     1     -47.180  37.862  27.065  1.00  0.00    -0.489 OA
BRANCH  28  29
ATOM     29  C   UNL     1     -46.633  36.586  26.721  1.00  0.00     0.115 C 
ATOM     30  H   UNL     1     -45.958  36.308  27.540  1.00  0.00     0.076 H 
ATOM     31  H   UNL     1     -46.008  36.657  25.822  1.00  0.00     0.076 H 
BRANCH  29  32
ATOM     32  C   UNL     1     -47.677  35.504  26.611  1.00  0.00     0.010 A 
ATOM     33  C   UNL     1     -48.980  35.753  27.017  1.00  0.00     0.034 A 
ATOM     34  C   UNL     1     -47.401  34.244  26.060  1.00  0.00    -0.028 A 
ATOM     35  N   UNL     1     -49.975  34.848  26.938  1.00  0.00    -0.262 NA
ATOM     36  H   UNL     1     -49.274  36.713  27.434  1.00  0.00     0.084 H 
ATOM     37  C   UNL     1     -48.406  33.269  25.963  1.00  0.00     0.066 A 
ATOM     38  H   UNL     1     -46.385  34.054  25.734  1.00  0.00     0.065 H 
ATOM     39  C   UNL     1     -49.669  33.630  26.420  1.00  0.00     0.051 A 
ATOM     40  H   UNL     1     -50.530  32.973  26.385  1.00  0.00     0.086 H 
BRANCH  37  41
ATOM     41  N   UNL     1     -48.133  31.972  25.417  1.00  0.00    -0.299 N 
ATOM     42  C   UNL     1     -48.718  30.791  25.847  1.00  0.00     0.021 A 
ATOM     43  C   UNL     1     -47.260  31.640  24.378  1.00  0.00     0.150 A 
ATOM     44  C   UNL     1     -48.232  29.733  25.108  1.00  0.00     0.033 A 
ATOM     45  H   UNL     1     -49.444  30.777  26.645  1.00  0.00     0.083 H 
ATOM     46  C   UNL     1     -47.287  30.258  24.182  1.00  0.00     0.071 A 
ATOM     47  N   UNL     1     -46.512  32.504  23.663  1.00  0.00    -0.218 NA
ATOM     48  C   UNL     1     -46.435  29.746  23.186  1.00  0.00     0.137 A 
ATOM     49  C   UNL     1     -45.767  31.904  22.727  1.00  0.00     0.120 A 
ATOM     50  N   UNL     1     -45.692  30.596  22.453  1.00  0.00    -0.219 NA
ATOM     51  H   UNL     1     -45.148  32.555  22.118  1.00  0.00     0.106 H 
BRANCH  44  52
ATOM     52  C   UNL     1     -48.634  28.331  25.250  1.00  0.00     0.095 A 
ATOM     53  C   UNL     1     -49.866  27.802  24.803  1.00  0.00    -0.016 A 
ATOM     54  N   UNL     1     -47.860  27.384  25.799  1.00  0.00    -0.173 NA
ATOM     55  C   UNL     1     -49.818  26.464  25.121  1.00  0.00     0.025 A 
ATOM     56  H   UNL     1     -50.683  28.321  24.322  1.00  0.00     0.066 H 
ATOM     57  N   UNL     1     -48.608  26.266  25.715  1.00  0.00    -0.275 N 
ATOM     58  H   UNL     1     -50.529  25.663  24.979  1.00  0.00     0.084 H 
BRANCH  57  59
ATOM     59  C   UNL     1     -48.089  25.024  26.236  1.00  0.00     0.030 C 
ATOM     60  H   UNL     1     -47.871  25.139  27.301  1.00  0.00     0.048 H 
ATOM     61  H   UNL     1     -48.845  24.248  26.090  1.00  0.00     0.048 H 
ATOM     62  H   UNL     1     -47.174  24.779  25.691  1.00  0.00     0.048 H 
ENDBRANCH  57  59
ENDBRANCH  44  52
BRANCH  48  63
ATOM     63  N   UNL     1     -46.304  28.398  22.891  1.00  0.00    -0.383 N 
ATOM     64  H   UNL     1     -45.549  27.951  23.418  1.00  0.00     0.158 HD
ATOM     65  H   UNL     1     -47.199  27.929  22.892  1.00  0.00     0.158 HD
ENDBRANCH  48  63
ENDBRANCH  37  41
ENDBRANCH  29  32
ENDBRANCH  28  29
ENDBRANCH   4  28
TORSDOF 14
ENDMDL
