MODEL 1
REMARK VINA RESULT:      -9.7      0.000      0.000
REMARK SMILES CCCC(=O)c1cn([C@@H]2O[C@H](COc3ccc4ccc(NC)nc4c3)[C@@H](O)[C@@H]2F)c2ncnc(N)c12
REMARK SMILES IDX 9 1 10 2 11 3 26 4 28 5 29 6 8 11 6 12 7 13 36 14 30 16
REMARK SMILES IDX 34 17 31 18 33 19 32 20 4 22 5 23 3 24 2 27 1 30 35 34 12 37
REMARK SMILES IDX 13 40 14 41 15 42 25 43 16 44 24 46 17 48 23 50 18 51 20 52
REMARK SMILES IDX 19 53 21 56 22 58 27 62
REMARK H PARENT 9 7 11 8 26 9 28 10 7 15 32 21 3 25 3 26 2 28 2 29 1 31 1 32
REMARK H PARENT 1 33 35 35 35 36 12 38 12 39 15 45 25 47 16 49 18 54 19 55
REMARK H PARENT 21 57 22 59 22 60 22 61 27 63
REMARK Flexibility Score: inf
ROOT
ATOM      1  C   UNL     1     -45.227  38.269  29.470  1.00  0.00     0.169 C 
ATOM      2  O   UNL     1     -44.674  37.032  28.978  1.00  0.00    -0.345 OA
ATOM      3  C   UNL     1     -45.770  36.112  28.775  1.00  0.00     0.123 C 
ATOM      4  C   UNL     1     -47.022  36.961  28.597  1.00  0.00     0.119 C 
ATOM      5  C   UNL     1     -46.741  38.121  29.528  1.00  0.00     0.173 C 
ATOM      6  F   UNL     1     -47.413  39.228  29.136  1.00  0.00    -0.239 F 
ATOM      7  H   UNL     1     -44.837  38.404  30.485  1.00  0.00     0.088 H 
ATOM      8  H   UNL     1     -45.842  35.494  29.680  1.00  0.00     0.067 H 
ATOM      9  H   UNL     1     -47.158  37.299  27.568  1.00  0.00     0.066 H 
ATOM     10  H   UNL     1     -47.068  37.883  30.547  1.00  0.00     0.074 H 
ENDROOT
BRANCH   1  11
ATOM     11  N   UNL     1     -44.718  39.376  28.673  1.00  0.00    -0.302 N 
ATOM     12  C   UNL     1     -44.582  40.897  27.022  1.00  0.00     0.049 A 
ATOM     13  C   UNL     1     -45.334  39.852  27.536  1.00  0.00     0.020 A 
ATOM     14  C   UNL     1     -43.472  41.074  27.915  1.00  0.00     0.072 A 
ATOM     15  H   UNL     1     -46.250  39.395  27.180  1.00  0.00     0.083 H 
ATOM     16  C   UNL     1     -43.580  40.105  28.909  1.00  0.00     0.148 A 
ATOM     17  C   UNL     1     -42.373  41.947  28.013  1.00  0.00     0.137 A 
ATOM     18  N   UNL     1     -42.725  39.915  29.928  1.00  0.00    -0.218 NA
ATOM     19  N   UNL     1     -41.489  41.777  29.014  1.00  0.00    -0.219 NA
ATOM     20  C   UNL     1     -41.713  40.797  29.904  1.00  0.00     0.120 A 
ATOM     21  H   UNL     1     -40.984  40.708  30.702  1.00  0.00     0.106 H 
BRANCH  12  22
ATOM     22  C   UNL     1     -44.870  41.649  25.797  1.00  0.00     0.165 C 
ATOM     23  O   UNL     1     -44.111  41.604  24.827  1.00  0.00    -0.294 OA
BRANCH  22  24
ATOM     24  C   UNL     1     -46.149  42.462  25.706  1.00  0.00     0.011 C 
ATOM     25  H   UNL     1     -46.829  42.019  24.969  1.00  0.00     0.035 H 
ATOM     26  H   UNL     1     -46.659  42.389  26.674  1.00  0.00     0.035 H 
BRANCH  24  27
ATOM     27  C   UNL     1     -45.842  43.919  25.379  1.00  0.00    -0.049 C 
ATOM     28  H   UNL     1     -46.736  44.418  24.988  1.00  0.00     0.027 H 
ATOM     29  H   UNL     1     -45.086  43.971  24.586  1.00  0.00     0.027 H 
BRANCH  27  30
ATOM     30  C   UNL     1     -45.343  44.670  26.602  1.00  0.00    -0.065 C 
ATOM     31  H   UNL     1     -45.074  45.700  26.346  1.00  0.00     0.023 H 
ATOM     32  H   UNL     1     -44.455  44.178  27.012  1.00  0.00     0.023 H 
ATOM     33  H   UNL     1     -46.107  44.697  27.385  1.00  0.00     0.023 H 
ENDBRANCH  27  30
ENDBRANCH  24  27
ENDBRANCH  22  24
ENDBRANCH  12  22
BRANCH  17  34
ATOM     34  N   UNL     1     -42.136  42.993  27.140  1.00  0.00    -0.383 N 
ATOM     35  H   UNL     1     -41.432  43.634  27.481  1.00  0.00     0.158 HD
ATOM     36  H   UNL     1     -42.097  42.737  26.153  1.00  0.00     0.158 HD
ENDBRANCH  17  34
ENDBRANCH   1  11
BRANCH   3  37
ATOM     37  C   UNL     1     -45.501  35.209  27.569  1.00  0.00     0.117 C 
ATOM     38  H   UNL     1     -45.511  34.159  27.885  1.00  0.00     0.073 H 
ATOM     39  H   UNL     1     -44.533  35.470  27.126  1.00  0.00     0.073 H 
BRANCH  37  40
ATOM     40  O   UNL     1     -46.537  35.423  26.603  1.00  0.00    -0.491 OA
BRANCH  40  41
ATOM     41  C   UNL     1     -47.085  34.312  26.024  1.00  0.00     0.121 A 
ATOM     42  C   UNL     1     -48.347  33.969  26.504  1.00  0.00    -0.019 A 
ATOM     43  C   UNL     1     -46.499  33.532  25.023  1.00  0.00     0.007 A 
ATOM     44  C   UNL     1     -49.014  32.857  25.994  1.00  0.00    -0.049 A 
ATOM     45  H   UNL     1     -48.810  34.569  27.283  1.00  0.00     0.066 H 
ATOM     46  C   UNL     1     -47.143  32.418  24.493  1.00  0.00     0.076 A 
ATOM     47  H   UNL     1     -45.520  33.768  24.622  1.00  0.00     0.069 H 
ATOM     48  C   UNL     1     -48.416  32.080  24.990  1.00  0.00     0.001 A 
ATOM     49  H   UNL     1     -49.996  32.601  26.385  1.00  0.00     0.063 H 
ATOM     50  N   UNL     1     -46.533  31.706  23.528  1.00  0.00    -0.231 NA
ATOM     51  C   UNL     1     -49.047  30.957  24.453  1.00  0.00    -0.049 A 
ATOM     52  C   UNL     1     -47.156  30.628  23.009  1.00  0.00     0.126 A 
ATOM     53  C   UNL     1     -48.408  30.224  23.458  1.00  0.00    -0.019 A 
ATOM     54  H   UNL     1     -50.025  30.642  24.806  1.00  0.00     0.063 H 
ATOM     55  H   UNL     1     -48.880  29.337  23.049  1.00  0.00     0.066 H 
BRANCH  52  56
ATOM     56  N   UNL     1     -46.530  29.847  22.021  1.00  0.00    -0.373 N 
ATOM     57  H   UNL     1     -46.569  30.343  21.135  1.00  0.00     0.161 HD
BRANCH  56  58
ATOM     58  C   UNL     1     -45.175  29.439  22.353  1.00  0.00     0.005 C 
ATOM     59  H   UNL     1     -44.861  28.651  21.660  1.00  0.00     0.045 H 
ATOM     60  H   UNL     1     -45.116  29.023  23.365  1.00  0.00     0.045 H 
ATOM     61  H   UNL     1     -44.467  30.268  22.252  1.00  0.00     0.045 H 
ENDBRANCH  56  58
ENDBRANCH  52  56
ENDBRANCH  40  41
ENDBRANCH  37  40
ENDBRANCH   3  37
BRANCH   4  62
ATOM     62  O   UNL     1     -48.199  36.251  28.973  1.00  0.00    -0.387 OA
ATOM     63  H   UNL     1     -48.958  36.754  28.623  1.00  0.00     0.211 HD
ENDBRANCH   4  62
TORSDOF 12
ENDMDL
MODEL 2
REMARK VINA RESULT:      -9.3      1.602      2.072
REMARK SMILES CCCC(=O)c1cn([C@@H]2O[C@H](COc3ccc4ccc(NC)nc4c3)[C@@H](O)[C@@H]2F)c2ncnc(N)c12
REMARK SMILES IDX 9 1 10 2 11 3 26 4 28 5 29 6 8 11 6 12 7 13 36 14 30 16
REMARK SMILES IDX 34 17 31 18 33 19 32 20 4 22 5 23 3 24 2 27 1 30 35 34 12 37
REMARK SMILES IDX 13 40 14 41 15 42 25 43 16 44 24 46 17 48 23 50 18 51 20 52
REMARK SMILES IDX 19 53 21 56 22 58 27 62
REMARK H PARENT 9 7 11 8 26 9 28 10 7 15 32 21 3 25 3 26 2 28 2 29 1 31 1 32
REMARK H PARENT 1 33 35 35 35 36 12 38 12 39 15 45 25 47 16 49 18 54 19 55
REMARK H PARENT 21 57 22 59 22 60 22 61 27 63
REMARK Flexibility Score: inf
ROOT
ATOM      1  C   UNL     1     -45.110  37.924  28.783  1.00  0.00     0.169 C 
ATOM      2  O   UNL     1     -45.081  36.909  27.760  1.00  0.00    -0.345 OA
ATOM      3  C   UNL     1     -46.344  36.208  27.803  1.00  0.00     0.123 C 
ATOM      4  C   UNL     1     -47.344  37.156  28.453  1.00  0.00     0.119 C 
ATOM      5  C   UNL     1     -46.474  37.879  29.457  1.00  0.00     0.173 C 
ATOM      6  F   UNL     1     -46.981  39.100  29.744  1.00  0.00    -0.239 F 
ATOM      7  H   UNL     1     -44.337  37.657  29.512  1.00  0.00     0.088 H 
ATOM      8  H   UNL     1     -46.193  35.314  28.422  1.00  0.00     0.067 H 
ATOM      9  H   UNL     1     -47.791  37.850  27.738  1.00  0.00     0.066 H 
ATOM     10  H   UNL     1     -46.423  37.317  30.396  1.00  0.00     0.074 H 
ENDROOT
BRANCH   1  11
ATOM     11  N   UNL     1     -44.719  39.203  28.205  1.00  0.00    -0.302 N 
ATOM     12  C   UNL     1     -44.690  40.962  26.804  1.00  0.00     0.049 A 
ATOM     13  C   UNL     1     -45.307  39.753  27.087  1.00  0.00     0.020 A 
ATOM     14  C   UNL     1     -43.698  41.158  27.824  1.00  0.00     0.072 A 
ATOM     15  H   UNL     1     -46.108  39.229  26.578  1.00  0.00     0.083 H 
ATOM     16  C   UNL     1     -43.733  40.043  28.656  1.00  0.00     0.148 A 
ATOM     17  C   UNL     1     -42.763  42.155  28.156  1.00  0.00     0.137 A 
ATOM     18  N   UNL     1     -42.945  39.824  29.722  1.00  0.00    -0.218 NA
ATOM     19  N   UNL     1     -41.948  41.963  29.210  1.00  0.00    -0.219 NA
ATOM     20  C   UNL     1     -42.086  40.836  29.927  1.00  0.00     0.120 A 
ATOM     21  H   UNL     1     -41.420  40.732  30.777  1.00  0.00     0.106 H 
BRANCH  12  22
ATOM     22  C   UNL     1     -44.993  41.843  25.673  1.00  0.00     0.165 C 
ATOM     23  O   UNL     1     -46.018  42.528  25.653  1.00  0.00    -0.294 OA
BRANCH  22  24
ATOM     24  C   UNL     1     -44.004  41.949  24.526  1.00  0.00     0.011 C 
ATOM     25  H   UNL     1     -43.042  41.509  24.811  1.00  0.00     0.035 H 
ATOM     26  H   UNL     1     -44.386  41.336  23.700  1.00  0.00     0.035 H 
BRANCH  24  27
ATOM     27  C   UNL     1     -43.846  43.398  24.078  1.00  0.00    -0.049 C 
ATOM     28  H   UNL     1     -44.001  44.076  24.925  1.00  0.00     0.027 H 
ATOM     29  H   UNL     1     -44.616  43.644  23.337  1.00  0.00     0.027 H 
BRANCH  27  30
ATOM     30  C   UNL     1     -42.472  43.649  23.480  1.00  0.00    -0.065 C 
ATOM     31  H   UNL     1     -42.184  42.835  22.807  1.00  0.00     0.023 H 
ATOM     32  H   UNL     1     -41.720  43.716  24.273  1.00  0.00     0.023 H 
ATOM     33  H   UNL     1     -42.455  44.586  22.916  1.00  0.00     0.023 H 
ENDBRANCH  27  30
ENDBRANCH  24  27
ENDBRANCH  22  24
ENDBRANCH  12  22
BRANCH  17  34
ATOM     34  N   UNL     1     -42.623  43.346  27.467  1.00  0.00    -0.383 N 
ATOM     35  H   UNL     1     -41.693  43.733  27.541  1.00  0.00     0.158 HD
ATOM     36  H   UNL     1     -43.069  43.373  26.549  1.00  0.00     0.158 HD
ENDBRANCH  17  34
ENDBRANCH   1  11
BRANCH   3  37
ATOM     37  C   UNL     1     -46.773  35.780  26.397  1.00  0.00     0.117 C 
ATOM     38  H   UNL     1     -45.925  35.321  25.877  1.00  0.00     0.073 H 
ATOM     39  H   UNL     1     -47.138  36.654  25.845  1.00  0.00     0.073 H 
BRANCH  37  40
ATOM     40  O   UNL     1     -47.830  34.821  26.519  1.00  0.00    -0.491 OA
BRANCH  40  41
ATOM     41  C   UNL     1     -47.684  33.645  25.837  1.00  0.00     0.121 A 
ATOM     42  C   UNL     1     -46.480  33.520  25.146  1.00  0.00    -0.019 A 
ATOM     43  C   UNL     1     -48.610  32.601  25.789  1.00  0.00     0.007 A 
ATOM     44  C   UNL     1     -46.208  32.368  24.412  1.00  0.00    -0.049 A 
ATOM     45  H   UNL     1     -45.753  34.329  25.176  1.00  0.00     0.066 H 
ATOM     46  C   UNL     1     -48.365  31.437  25.068  1.00  0.00     0.076 A 
ATOM     47  H   UNL     1     -49.557  32.659  26.316  1.00  0.00     0.069 H 
ATOM     48  C   UNL     1     -47.146  31.325  24.370  1.00  0.00     0.001 A 
ATOM     49  H   UNL     1     -45.266  32.290  23.875  1.00  0.00     0.063 H 
ATOM     50  N   UNL     1     -49.292  30.462  25.060  1.00  0.00    -0.231 NA
ATOM     51  C   UNL     1     -46.916  30.155  23.646  1.00  0.00    -0.049 A 
ATOM     52  C   UNL     1     -49.055  29.331  24.365  1.00  0.00     0.126 A 
ATOM     53  C   UNL     1     -47.881  29.153  23.640  1.00  0.00    -0.019 A 
ATOM     54  H   UNL     1     -45.999  30.018  23.080  1.00  0.00     0.063 H 
ATOM     55  H   UNL     1     -47.722  28.248  23.063  1.00  0.00     0.066 H 
BRANCH  52  56
ATOM     56  N   UNL     1     -50.018  28.307  24.314  1.00  0.00    -0.373 N 
ATOM     57  H   UNL     1     -50.267  28.138  23.344  1.00  0.00     0.161 HD
BRANCH  56  58
ATOM     58  C   UNL     1     -49.625  27.084  24.992  1.00  0.00     0.005 C 
ATOM     59  H   UNL     1     -50.523  26.503  25.227  1.00  0.00     0.045 H 
ATOM     60  H   UNL     1     -49.118  27.295  25.941  1.00  0.00     0.045 H 
ATOM     61  H   UNL     1     -48.983  26.460  24.361  1.00  0.00     0.045 H 
ENDBRANCH  56  58
ENDBRANCH  52  56
ENDBRANCH  40  41
ENDBRANCH  37  40
ENDBRANCH   3  37
BRANCH   4  62
ATOM     62  O   UNL     1     -48.408  36.448  29.084  1.00  0.00    -0.387 OA
ATOM     63  H   UNL     1     -48.637  35.701  28.499  1.00  0.00     0.211 HD
ENDBRANCH   4  62
TORSDOF 12
ENDMDL
MODEL 3
REMARK VINA RESULT:      -8.4      3.058     10.885
REMARK SMILES CCCC(=O)c1cn([C@@H]2O[C@H](COc3ccc4ccc(NC)nc4c3)[C@@H](O)[C@@H]2F)c2ncnc(N)c12
REMARK SMILES IDX 9 1 10 2 11 3 26 4 28 5 29 6 8 11 6 12 7 13 36 14 30 16
REMARK SMILES IDX 34 17 31 18 33 19 32 20 4 22 5 23 3 24 2 27 1 30 35 34 12 37
REMARK SMILES IDX 13 40 14 41 15 42 25 43 16 44 24 46 17 48 23 50 18 51 20 52
REMARK SMILES IDX 19 53 21 56 22 58 27 62
REMARK H PARENT 9 7 11 8 26 9 28 10 7 15 32 21 3 25 3 26 2 28 2 29 1 31 1 32
REMARK H PARENT 1 33 35 35 35 36 12 38 12 39 15 45 25 47 16 49 18 54 19 55
REMARK H PARENT 21 57 22 59 22 60 22 61 27 63
REMARK Flexibility Score: inf
ROOT
ATOM      1  C   UNL     1     -48.006  31.623  26.238  1.00  0.00     0.169 C 
ATOM      2  O   UNL     1     -48.714  32.720  26.848  1.00  0.00    -0.345 OA
ATOM      3  C   UNL     1     -47.832  33.864  26.850  1.00  0.00     0.123 C 
ATOM      4  C   UNL     1     -46.814  33.629  25.741  1.00  0.00     0.119 C 
ATOM      5  C   UNL     1     -46.638  32.127  25.799  1.00  0.00     0.173 C 
ATOM      6  F   UNL     1     -46.236  31.642  24.602  1.00  0.00    -0.239 F 
ATOM      7  H   UNL     1     -47.878  30.861  27.016  1.00  0.00     0.088 H 
ATOM      8  H   UNL     1     -47.341  33.889  27.832  1.00  0.00     0.067 H 
ATOM      9  H   UNL     1     -47.176  33.951  24.763  1.00  0.00     0.066 H 
ATOM     10  H   UNL     1     -45.872  31.858  26.536  1.00  0.00     0.074 H 
ENDROOT
BRANCH   1  11
ATOM     11  N   UNL     1     -48.837  31.029  25.200  1.00  0.00    -0.302 N 
ATOM     12  C   UNL     1     -50.185  30.884  23.406  1.00  0.00     0.049 A 
ATOM     13  C   UNL     1     -49.474  31.755  24.216  1.00  0.00     0.020 A 
ATOM     14  C   UNL     1     -49.938  29.564  23.915  1.00  0.00     0.072 A 
ATOM     15  H   UNL     1     -49.378  32.834  24.186  1.00  0.00     0.083 H 
ATOM     16  C   UNL     1     -49.119  29.698  25.033  1.00  0.00     0.148 A 
ATOM     17  C   UNL     1     -50.307  28.252  23.565  1.00  0.00     0.137 A 
ATOM     18  N   UNL     1     -48.674  28.698  25.814  1.00  0.00    -0.218 NA
ATOM     19  N   UNL     1     -49.889  27.228  24.333  1.00  0.00    -0.219 NA
ATOM     20  C   UNL     1     -49.104  27.500  25.388  1.00  0.00     0.120 A 
ATOM     21  H   UNL     1     -48.779  26.643  25.968  1.00  0.00     0.106 H 
BRANCH  12  22
ATOM     22  C   UNL     1     -51.031  31.257  22.269  1.00  0.00     0.165 C 
ATOM     23  O   UNL     1     -52.260  31.270  22.364  1.00  0.00    -0.294 OA
BRANCH  22  24
ATOM     24  C   UNL     1     -50.380  31.678  20.963  1.00  0.00     0.011 C 
ATOM     25  H   UNL     1     -51.092  31.583  20.136  1.00  0.00     0.035 H 
ATOM     26  H   UNL     1     -50.143  32.746  21.039  1.00  0.00     0.035 H 
BRANCH  24  27
ATOM     27  C   UNL     1     -49.112  30.873  20.705  1.00  0.00    -0.049 C 
ATOM     28  H   UNL     1     -48.686  30.521  21.652  1.00  0.00     0.027 H 
ATOM     29  H   UNL     1     -48.352  31.514  20.242  1.00  0.00     0.027 H 
BRANCH  27  30
ATOM     30  C   UNL     1     -49.383  29.681  19.804  1.00  0.00    -0.065 C 
ATOM     31  H   UNL     1     -49.869  28.872  20.360  1.00  0.00     0.023 H 
ATOM     32  H   UNL     1     -48.444  29.294  19.394  1.00  0.00     0.023 H 
ATOM     33  H   UNL     1     -50.029  29.960  18.967  1.00  0.00     0.023 H 
ENDBRANCH  27  30
ENDBRANCH  24  27
ENDBRANCH  22  24
ENDBRANCH  12  22
BRANCH  17  34
ATOM     34  N   UNL     1     -51.076  27.933  22.461  1.00  0.00    -0.383 N 
ATOM     35  H   UNL     1     -50.699  27.159  21.934  1.00  0.00     0.158 HD
ATOM     36  H   UNL     1     -52.085  27.948  22.615  1.00  0.00     0.158 HD
ENDBRANCH  17  34
ENDBRANCH   1  11
BRANCH   3  37
ATOM     37  C   UNL     1     -48.624  35.159  26.650  1.00  0.00     0.117 C 
ATOM     38  H   UNL     1     -49.640  34.921  26.317  1.00  0.00     0.073 H 
ATOM     39  H   UNL     1     -48.113  35.789  25.912  1.00  0.00     0.073 H 
BRANCH  37  40
ATOM     40  O   UNL     1     -48.684  35.850  27.903  1.00  0.00    -0.491 OA
BRANCH  40  41
ATOM     41  C   UNL     1     -47.599  36.609  28.246  1.00  0.00     0.121 A 
ATOM     42  C   UNL     1     -46.950  36.203  29.410  1.00  0.00    -0.019 A 
ATOM     43  C   UNL     1     -47.110  37.712  27.541  1.00  0.00     0.007 A 
ATOM     44  C   UNL     1     -45.830  36.893  29.867  1.00  0.00    -0.049 A 
ATOM     45  H   UNL     1     -47.324  35.347  29.967  1.00  0.00     0.066 H 
ATOM     46  C   UNL     1     -45.992  38.418  27.971  1.00  0.00     0.076 A 
ATOM     47  H   UNL     1     -47.586  38.057  26.630  1.00  0.00     0.069 H 
ATOM     48  C   UNL     1     -45.348  37.999  29.152  1.00  0.00     0.001 A 
ATOM     49  H   UNL     1     -45.339  36.565  30.781  1.00  0.00     0.063 H 
ATOM     50  N   UNL     1     -45.563  39.470  27.250  1.00  0.00    -0.231 NA
ATOM     51  C   UNL     1     -44.231  38.721  29.574  1.00  0.00    -0.049 A 
ATOM     52  C   UNL     1     -44.476  40.154  27.662  1.00  0.00     0.126 A 
ATOM     53  C   UNL     1     -43.796  39.810  28.825  1.00  0.00    -0.019 A 
ATOM     54  H   UNL     1     -43.700  38.451  30.484  1.00  0.00     0.063 H 
ATOM     55  H   UNL     1     -42.941  40.391  29.156  1.00  0.00     0.066 H 
BRANCH  52  56
ATOM     56  N   UNL     1     -44.023  41.277  26.945  1.00  0.00    -0.373 N 
ATOM     57  H   UNL     1     -43.018  41.201  26.818  1.00  0.00     0.161 HD
BRANCH  56  58
ATOM     58  C   UNL     1     -44.713  41.498  25.686  1.00  0.00     0.005 C 
ATOM     59  H   UNL     1     -44.103  42.155  25.057  1.00  0.00     0.045 H 
ATOM     60  H   UNL     1     -45.676  41.998  25.837  1.00  0.00     0.045 H 
ATOM     61  H   UNL     1     -44.864  40.563  25.138  1.00  0.00     0.045 H 
ENDBRANCH  56  58
ENDBRANCH  52  56
ENDBRANCH  40  41
ENDBRANCH  37  40
ENDBRANCH   3  37
BRANCH   4  62
ATOM     62  O   UNL     1     -45.591  34.318  25.992  1.00  0.00    -0.387 OA
ATOM     63  H   UNL     1     -45.716  34.822  26.818  1.00  0.00     0.211 HD
ENDBRANCH   4  62
TORSDOF 12
ENDMDL
MODEL 4
REMARK VINA RESULT:      -8.3      2.431      3.028
REMARK SMILES CCCC(=O)c1cn([C@@H]2O[C@H](COc3ccc4ccc(NC)nc4c3)[C@@H](O)[C@@H]2F)c2ncnc(N)c12
REMARK SMILES IDX 9 1 10 2 11 3 26 4 28 5 29 6 8 11 6 12 7 13 36 14 30 16
REMARK SMILES IDX 34 17 31 18 33 19 32 20 4 22 5 23 3 24 2 27 1 30 35 34 12 37
REMARK SMILES IDX 13 40 14 41 15 42 25 43 16 44 24 46 17 48 23 50 18 51 20 52
REMARK SMILES IDX 19 53 21 56 22 58 27 62
REMARK H PARENT 9 7 11 8 26 9 28 10 7 15 32 21 3 25 3 26 2 28 2 29 1 31 1 32
REMARK H PARENT 1 33 35 35 35 36 12 38 12 39 15 45 25 47 16 49 18 54 19 55
REMARK H PARENT 21 57 22 59 22 60 22 61 27 63
REMARK Flexibility Score: inf
ROOT
ATOM      1  C   UNL     1     -45.243  37.955  28.326  1.00  0.00     0.169 C 
ATOM      2  O   UNL     1     -45.537  36.795  27.524  1.00  0.00    -0.345 OA
ATOM      3  C   UNL     1     -45.892  35.720  28.422  1.00  0.00     0.123 C 
ATOM      4  C   UNL     1     -46.366  36.373  29.714  1.00  0.00     0.119 C 
ATOM      5  C   UNL     1     -45.474  37.593  29.786  1.00  0.00     0.173 C 
ATOM      6  F   UNL     1     -46.060  38.577  30.507  1.00  0.00    -0.239 F 
ATOM      7  H   UNL     1     -44.182  38.182  28.173  1.00  0.00     0.088 H 
ATOM      8  H   UNL     1     -44.981  35.131  28.593  1.00  0.00     0.067 H 
ATOM      9  H   UNL     1     -47.421  36.650  29.682  1.00  0.00     0.066 H 
ATOM     10  H   UNL     1     -44.526  37.347  30.278  1.00  0.00     0.074 H 
ENDROOT
BRANCH   1  11
ATOM     11  N   UNL     1     -45.994  39.095  27.819  1.00  0.00    -0.302 N 
ATOM     12  C   UNL     1     -47.739  40.448  27.392  1.00  0.00     0.049 A 
ATOM     13  C   UNL     1     -47.348  39.272  28.012  1.00  0.00     0.020 A 
ATOM     14  C   UNL     1     -46.552  41.019  26.820  1.00  0.00     0.072 A 
ATOM     15  H   UNL     1     -47.921  38.536  28.564  1.00  0.00     0.083 H 
ATOM     16  C   UNL     1     -45.502  40.147  27.088  1.00  0.00     0.148 A 
ATOM     17  C   UNL     1     -46.227  42.184  26.102  1.00  0.00     0.137 A 
ATOM     18  N   UNL     1     -44.223  40.303  26.705  1.00  0.00    -0.218 NA
ATOM     19  N   UNL     1     -44.958  42.368  25.691  1.00  0.00    -0.219 NA
ATOM     20  C   UNL     1     -44.042  41.441  26.016  1.00  0.00     0.120 A 
ATOM     21  H   UNL     1     -43.030  41.639  25.678  1.00  0.00     0.106 H 
BRANCH  12  22
ATOM     22  C   UNL     1     -49.104  40.978  27.327  1.00  0.00     0.165 C 
ATOM     23  O   UNL     1     -49.482  41.654  26.368  1.00  0.00    -0.294 OA
BRANCH  22  24
ATOM     24  C   UNL     1     -50.085  40.650  28.440  1.00  0.00     0.011 C 
ATOM     25  H   UNL     1     -50.826  39.924  28.091  1.00  0.00     0.035 H 
ATOM     26  H   UNL     1     -49.523  40.155  29.241  1.00  0.00     0.035 H 
BRANCH  24  27
ATOM     27  C   UNL     1     -50.748  41.918  28.966  1.00  0.00    -0.049 C 
ATOM     28  H   UNL     1     -51.815  41.743  29.146  1.00  0.00     0.027 H 
ATOM     29  H   UNL     1     -50.686  42.711  28.212  1.00  0.00     0.027 H 
BRANCH  27  30
ATOM     30  C   UNL     1     -50.095  42.394  30.253  1.00  0.00    -0.065 C 
ATOM     31  H   UNL     1     -49.816  43.451  30.183  1.00  0.00     0.023 H 
ATOM     32  H   UNL     1     -49.187  41.816  30.453  1.00  0.00     0.023 H 
ATOM     33  H   UNL     1     -50.770  42.272  31.105  1.00  0.00     0.023 H 
ENDBRANCH  27  30
ENDBRANCH  24  27
ENDBRANCH  22  24
ENDBRANCH  12  22
BRANCH  17  34
ATOM     34  N   UNL     1     -47.136  43.179  25.789  1.00  0.00    -0.383 N 
ATOM     35  H   UNL     1     -46.878  44.078  26.173  1.00  0.00     0.158 HD
ATOM     36  H   UNL     1     -47.487  43.163  24.831  1.00  0.00     0.158 HD
ENDBRANCH  17  34
ENDBRANCH   1  11
BRANCH   3  37
ATOM     37  C   UNL     1     -46.961  34.822  27.795  1.00  0.00     0.117 C 
ATOM     38  H   UNL     1     -47.956  35.229  28.008  1.00  0.00     0.073 H 
ATOM     39  H   UNL     1     -46.865  33.806  28.196  1.00  0.00     0.073 H 
BRANCH  37  40
ATOM     40  O   UNL     1     -46.754  34.793  26.378  1.00  0.00    -0.491 OA
BRANCH  40  41
ATOM     41  C   UNL     1     -47.165  33.671  25.713  1.00  0.00     0.121 A 
ATOM     42  C   UNL     1     -48.475  33.282  25.984  1.00  0.00    -0.019 A 
ATOM     43  C   UNL     1     -46.402  32.920  24.815  1.00  0.00     0.007 A 
ATOM     44  C   UNL     1     -49.015  32.155  25.369  1.00  0.00    -0.049 A 
ATOM     45  H   UNL     1     -49.077  33.859  26.682  1.00  0.00     0.066 H 
ATOM     46  C   UNL     1     -46.915  31.792  24.184  1.00  0.00     0.076 A 
ATOM     47  H   UNL     1     -45.379  33.192  24.577  1.00  0.00     0.069 H 
ATOM     48  C   UNL     1     -48.239  31.408  24.469  1.00  0.00     0.001 A 
ATOM     49  H   UNL     1     -50.038  31.863  25.596  1.00  0.00     0.063 H 
ATOM     50  N   UNL     1     -46.136  31.109  23.325  1.00  0.00    -0.231 NA
ATOM     51  C   UNL     1     -48.738  30.270  23.834  1.00  0.00    -0.049 A 
ATOM     52  C   UNL     1     -46.631  30.017  22.708  1.00  0.00     0.126 A 
ATOM     53  C   UNL     1     -47.925  29.568  22.950  1.00  0.00    -0.019 A 
ATOM     54  H   UNL     1     -49.750  29.920  24.024  1.00  0.00     0.063 H 
ATOM     55  H   UNL     1     -48.296  28.670  22.466  1.00  0.00     0.066 H 
BRANCH  52  56
ATOM     56  N   UNL     1     -45.830  29.266  21.829  1.00  0.00    -0.373 N 
ATOM     57  H   UNL     1     -45.778  29.749  20.937  1.00  0.00     0.161 HD
BRANCH  56  58
ATOM     58  C   UNL     1     -44.511  28.947  22.349  1.00  0.00     0.005 C 
ATOM     59  H   UNL     1     -44.014  29.876  22.649  1.00  0.00     0.045 H 
ATOM     60  H   UNL     1     -43.881  28.474  21.588  1.00  0.00     0.045 H 
ATOM     61  H   UNL     1     -44.570  28.304  23.233  1.00  0.00     0.045 H 
ENDBRANCH  56  58
ENDBRANCH  52  56
ENDBRANCH  40  41
ENDBRANCH  37  40
ENDBRANCH   3  37
BRANCH   4  62
ATOM     62  O   UNL     1     -46.183  35.513  30.837  1.00  0.00    -0.387 OA
ATOM     63  H   UNL     1     -45.238  35.561  31.079  1.00  0.00     0.211 HD
ENDBRANCH   4  62
TORSDOF 12
ENDMDL
MODEL 5
REMARK VINA RESULT:      -8.2      1.810      2.692
REMARK SMILES CCCC(=O)c1cn([C@@H]2O[C@H](COc3ccc4ccc(NC)nc4c3)[C@@H](O)[C@@H]2F)c2ncnc(N)c12
REMARK SMILES IDX 9 1 10 2 11 3 26 4 28 5 29 6 8 11 6 12 7 13 36 14 30 16
REMARK SMILES IDX 34 17 31 18 33 19 32 20 4 22 5 23 3 24 2 27 1 30 35 34 12 37
REMARK SMILES IDX 13 40 14 41 15 42 25 43 16 44 24 46 17 48 23 50 18 51 20 52
REMARK SMILES IDX 19 53 21 56 22 58 27 62
REMARK H PARENT 9 7 11 8 26 9 28 10 7 15 32 21 3 25 3 26 2 28 2 29 1 31 1 32
REMARK H PARENT 1 33 35 35 35 36 12 38 12 39 15 45 25 47 16 49 18 54 19 55
REMARK H PARENT 21 57 22 59 22 60 22 61 27 63
REMARK Flexibility Score: inf
ROOT
ATOM      1  C   UNL     1     -44.336  37.982  28.526  1.00  0.00     0.169 C 
ATOM      2  O   UNL     1     -44.953  36.996  27.675  1.00  0.00    -0.345 OA
ATOM      3  C   UNL     1     -45.742  36.124  28.514  1.00  0.00     0.123 C 
ATOM      4  C   UNL     1     -46.062  36.912  29.778  1.00  0.00     0.119 C 
ATOM      5  C   UNL     1     -44.805  37.736  29.953  1.00  0.00     0.173 C 
ATOM      6  F   UNL     1     -45.064  38.869  30.645  1.00  0.00    -0.239 F 
ATOM      7  H   UNL     1     -43.255  37.816  28.466  1.00  0.00     0.088 H 
ATOM      8  H   UNL     1     -45.117  35.251  28.746  1.00  0.00     0.067 H 
ATOM      9  H   UNL     1     -46.943  37.546  29.665  1.00  0.00     0.066 H 
ATOM     10  H   UNL     1     -44.052  37.173  30.516  1.00  0.00     0.074 H 
ENDROOT
BRANCH   1  11
ATOM     11  N   UNL     1     -44.587  39.311  27.985  1.00  0.00    -0.302 N 
ATOM     12  C   UNL     1     -44.210  41.439  27.365  1.00  0.00     0.049 A 
ATOM     13  C   UNL     1     -43.636  40.306  27.921  1.00  0.00     0.020 A 
ATOM     14  C   UNL     1     -45.569  41.094  27.055  1.00  0.00     0.072 A 
ATOM     15  H   UNL     1     -42.633  40.128  28.291  1.00  0.00     0.083 H 
ATOM     16  C   UNL     1     -45.768  39.781  27.470  1.00  0.00     0.148 A 
ATOM     17  C   UNL     1     -46.672  41.735  26.463  1.00  0.00     0.137 A 
ATOM     18  N   UNL     1     -46.915  39.086  27.380  1.00  0.00    -0.218 NA
ATOM     19  N   UNL     1     -47.840  41.073  26.368  1.00  0.00    -0.219 NA
ATOM     20  C   UNL     1     -47.895  39.808  26.814  1.00  0.00     0.120 A 
ATOM     21  H   UNL     1     -48.852  39.309  26.701  1.00  0.00     0.106 H 
BRANCH  12  22
ATOM     22  C   UNL     1     -43.548  42.731  27.159  1.00  0.00     0.165 C 
ATOM     23  O   UNL     1     -43.733  43.674  27.932  1.00  0.00    -0.294 OA
BRANCH  22  24
ATOM     24  C   UNL     1     -42.583  42.897  25.999  1.00  0.00     0.011 C 
ATOM     25  H   UNL     1     -41.618  43.271  26.358  1.00  0.00     0.035 H 
ATOM     26  H   UNL     1     -42.390  41.901  25.582  1.00  0.00     0.035 H 
BRANCH  24  27
ATOM     27  C   UNL     1     -43.174  43.811  24.930  1.00  0.00    -0.049 C 
ATOM     28  H   UNL     1     -42.399  44.468  24.520  1.00  0.00     0.027 H 
ATOM     29  H   UNL     1     -43.932  44.465  25.378  1.00  0.00     0.027 H 
BRANCH  27  30
ATOM     30  C   UNL     1     -43.803  43.011  23.801  1.00  0.00    -0.065 C 
ATOM     31  H   UNL     1     -43.958  41.969  24.099  1.00  0.00     0.023 H 
ATOM     32  H   UNL     1     -43.150  43.020  22.922  1.00  0.00     0.023 H 
ATOM     33  H   UNL     1     -44.768  43.435  23.510  1.00  0.00     0.023 H 
ENDBRANCH  27  30
ENDBRANCH  24  27
ENDBRANCH  22  24
ENDBRANCH  12  22
BRANCH  17  34
ATOM     34  N   UNL     1     -46.639  43.021  25.953  1.00  0.00    -0.383 N 
ATOM     35  H   UNL     1     -47.291  43.157  25.194  1.00  0.00     0.158 HD
ATOM     36  H   UNL     1     -46.569  43.764  26.650  1.00  0.00     0.158 HD
ENDBRANCH  17  34
ENDBRANCH   1  11
BRANCH   3  37
ATOM     37  C   UNL     1     -47.002  35.660  27.780  1.00  0.00     0.117 C 
ATOM     38  H   UNL     1     -47.752  36.458  27.795  1.00  0.00     0.073 H 
ATOM     39  H   UNL     1     -47.391  34.755  28.260  1.00  0.00     0.073 H 
BRANCH  37  40
ATOM     40  O   UNL     1     -46.651  35.364  26.422  1.00  0.00    -0.491 OA
BRANCH  40  41
ATOM     41  C   UNL     1     -47.134  34.197  25.897  1.00  0.00     0.121 A 
ATOM     42  C   UNL     1     -48.346  33.773  26.438  1.00  0.00    -0.019 A 
ATOM     43  C   UNL     1     -46.529  33.433  24.896  1.00  0.00     0.007 A 
ATOM     44  C   UNL     1     -48.944  32.599  25.988  1.00  0.00    -0.049 A 
ATOM     45  H   UNL     1     -48.824  34.360  27.220  1.00  0.00     0.066 H 
ATOM     46  C   UNL     1     -47.104  32.258  24.424  1.00  0.00     0.076 A 
ATOM     47  H   UNL     1     -45.587  33.731  24.448  1.00  0.00     0.069 H 
ATOM     48  C   UNL     1     -48.328  31.839  24.982  1.00  0.00     0.001 A 
ATOM     49  H   UNL     1     -49.888  32.281  26.426  1.00  0.00     0.063 H 
ATOM     50  N   UNL     1     -46.479  31.565  23.455  1.00  0.00    -0.231 NA
ATOM     51  C   UNL     1     -48.890  30.655  24.503  1.00  0.00    -0.049 A 
ATOM     52  C   UNL     1     -47.037  30.427  22.992  1.00  0.00     0.126 A 
ATOM     53  C   UNL     1     -48.235  29.942  23.504  1.00  0.00    -0.019 A 
ATOM     54  H   UNL     1     -49.827  30.277  24.904  1.00  0.00     0.063 H 
ATOM     55  H   UNL     1     -48.653  29.010  23.139  1.00  0.00     0.066 H 
BRANCH  52  56
ATOM     56  N   UNL     1     -46.391  29.665  22.001  1.00  0.00    -0.373 N 
ATOM     57  H   UNL     1     -46.419  30.176  21.123  1.00  0.00     0.161 HD
BRANCH  56  58
ATOM     58  C   UNL     1     -45.040  29.259  22.347  1.00  0.00     0.005 C 
ATOM     59  H   UNL     1     -44.770  28.379  21.754  1.00  0.00     0.045 H 
ATOM     60  H   UNL     1     -44.963  28.974  23.403  1.00  0.00     0.045 H 
ATOM     61  H   UNL     1     -44.311  30.045  22.122  1.00  0.00     0.045 H 
ENDBRANCH  56  58
ENDBRANCH  52  56
ENDBRANCH  40  41
ENDBRANCH  37  40
ENDBRANCH   3  37
BRANCH   4  62
ATOM     62  O   UNL     1     -46.293  36.052  30.891  1.00  0.00    -0.387 OA
ATOM     63  H   UNL     1     -47.146  36.320  31.284  1.00  0.00     0.211 HD
ENDBRANCH   4  62
TORSDOF 12
ENDMDL
MODEL 6
REMARK VINA RESULT:      -8.2      3.008      4.111
REMARK SMILES CCCC(=O)c1cn([C@@H]2O[C@H](COc3ccc4ccc(NC)nc4c3)[C@@H](O)[C@@H]2F)c2ncnc(N)c12
REMARK SMILES IDX 9 1 10 2 11 3 26 4 28 5 29 6 8 11 6 12 7 13 36 14 30 16
REMARK SMILES IDX 34 17 31 18 33 19 32 20 4 22 5 23 3 24 2 27 1 30 35 34 12 37
REMARK SMILES IDX 13 40 14 41 15 42 25 43 16 44 24 46 17 48 23 50 18 51 20 52
REMARK SMILES IDX 19 53 21 56 22 58 27 62
REMARK H PARENT 9 7 11 8 26 9 28 10 7 15 32 21 3 25 3 26 2 28 2 29 1 31 1 32
REMARK H PARENT 1 33 35 35 35 36 12 38 12 39 15 45 25 47 16 49 18 54 19 55
REMARK H PARENT 21 57 22 59 22 60 22 61 27 63
REMARK Flexibility Score: inf
ROOT
ATOM      1  C   UNL     1     -46.064  37.739  27.505  1.00  0.00     0.169 C 
ATOM      2  O   UNL     1     -46.492  36.745  26.553  1.00  0.00    -0.345 OA
ATOM      3  C   UNL     1     -46.629  35.492  27.258  1.00  0.00     0.123 C 
ATOM      4  C   UNL     1     -46.838  35.841  28.727  1.00  0.00     0.119 C 
ATOM      5  C   UNL     1     -45.978  37.077  28.873  1.00  0.00     0.173 C 
ATOM      6  F   UNL     1     -46.423  37.857  29.885  1.00  0.00    -0.239 F 
ATOM      7  H   UNL     1     -45.063  38.059  27.194  1.00  0.00     0.088 H 
ATOM      8  H   UNL     1     -45.690  34.941  27.118  1.00  0.00     0.067 H 
ATOM      9  H   UNL     1     -47.883  36.051  28.963  1.00  0.00     0.066 H 
ATOM     10  H   UNL     1     -44.943  36.800  29.104  1.00  0.00     0.074 H 
ENDROOT
BRANCH   1  11
ATOM     11  N   UNL     1     -46.929  38.906  27.406  1.00  0.00    -0.302 N 
ATOM     12  C   UNL     1     -48.768  40.187  27.587  1.00  0.00     0.049 A 
ATOM     13  C   UNL     1     -48.237  38.932  27.839  1.00  0.00     0.020 A 
ATOM     14  C   UNL     1     -47.713  40.962  26.997  1.00  0.00     0.072 A 
ATOM     15  H   UNL     1     -48.685  38.048  28.278  1.00  0.00     0.083 H 
ATOM     16  C   UNL     1     -46.602  40.132  26.884  1.00  0.00     0.148 A 
ATOM     17  C   UNL     1     -47.553  42.283  26.539  1.00  0.00     0.137 A 
ATOM     18  N   UNL     1     -45.410  40.467  26.361  1.00  0.00    -0.218 NA
ATOM     19  N   UNL     1     -46.376  42.650  25.997  1.00  0.00    -0.219 NA
ATOM     20  C   UNL     1     -45.387  41.744  25.947  1.00  0.00     0.120 A 
ATOM     21  H   UNL     1     -44.452  42.089  25.517  1.00  0.00     0.106 H 
BRANCH  12  22
ATOM     22  C   UNL     1     -50.143  40.615  27.859  1.00  0.00     0.165 C 
ATOM     23  O   UNL     1     -50.840  41.124  26.978  1.00  0.00    -0.294 OA
BRANCH  22  24
ATOM     24  C   UNL     1     -50.736  40.387  29.238  1.00  0.00     0.011 C 
ATOM     25  H   UNL     1     -51.638  39.770  29.166  1.00  0.00     0.035 H 
ATOM     26  H   UNL     1     -50.011  39.802  29.818  1.00  0.00     0.035 H 
BRANCH  24  27
ATOM     27  C   UNL     1     -51.019  41.714  29.932  1.00  0.00    -0.049 C 
ATOM     28  H   UNL     1     -51.462  41.541  30.920  1.00  0.00     0.027 H 
ATOM     29  H   UNL     1     -51.757  42.285  29.356  1.00  0.00     0.027 H 
BRANCH  27  30
ATOM     30  C   UNL     1     -49.753  42.541  30.089  1.00  0.00    -0.065 C 
ATOM     31  H   UNL     1     -49.911  43.369  30.787  1.00  0.00     0.023 H 
ATOM     32  H   UNL     1     -49.454  42.962  29.123  1.00  0.00     0.023 H 
ATOM     33  H   UNL     1     -48.927  41.928  30.462  1.00  0.00     0.023 H 
ENDBRANCH  27  30
ENDBRANCH  24  27
ENDBRANCH  22  24
ENDBRANCH  12  22
BRANCH  17  34
ATOM     34  N   UNL     1     -48.536  43.253  26.616  1.00  0.00    -0.383 N 
ATOM     35  H   UNL     1     -48.386  44.012  25.966  1.00  0.00     0.158 HD
ATOM     36  H   UNL     1     -49.488  42.901  26.713  1.00  0.00     0.158 HD
ENDBRANCH  17  34
ENDBRANCH   1  11
BRANCH   3  37
ATOM     37  C   UNL     1     -47.785  34.670  26.683  1.00  0.00     0.117 C 
ATOM     38  H   UNL     1     -47.781  34.743  25.590  1.00  0.00     0.073 H 
ATOM     39  H   UNL     1     -48.733  35.039  27.091  1.00  0.00     0.073 H 
BRANCH  37  40
ATOM     40  O   UNL     1     -47.604  33.302  27.068  1.00  0.00    -0.491 OA
BRANCH  40  41
ATOM     41  C   UNL     1     -47.595  32.371  26.066  1.00  0.00     0.121 A 
ATOM     42  C   UNL     1     -46.605  32.562  25.104  1.00  0.00    -0.019 A 
ATOM     43  C   UNL     1     -48.465  31.284  25.945  1.00  0.00     0.007 A 
ATOM     44  C   UNL     1     -46.490  31.682  24.032  1.00  0.00    -0.049 A 
ATOM     45  H   UNL     1     -45.925  33.406  25.189  1.00  0.00     0.066 H 
ATOM     46  C   UNL     1     -48.371  30.387  24.887  1.00  0.00     0.076 A 
ATOM     47  H   UNL     1     -49.246  31.101  26.675  1.00  0.00     0.069 H 
ATOM     48  C   UNL     1     -47.369  30.594  23.919  1.00  0.00     0.001 A 
ATOM     49  H   UNL     1     -45.715  31.849  23.287  1.00  0.00     0.063 H 
ATOM     50  N   UNL     1     -49.233  29.356  24.823  1.00  0.00    -0.231 NA
ATOM     51  C   UNL     1     -47.291  29.689  22.860  1.00  0.00    -0.049 A 
ATOM     52  C   UNL     1     -49.142  28.481  23.800  1.00  0.00     0.126 A 
ATOM     53  C   UNL     1     -48.188  28.627  22.799  1.00  0.00    -0.019 A 
ATOM     54  H   UNL     1     -46.545  29.805  22.078  1.00  0.00     0.063 H 
ATOM     55  H   UNL     1     -48.150  27.930  21.969  1.00  0.00     0.066 H 
BRANCH  52  56
ATOM     56  N   UNL     1     -50.049  27.411  23.691  1.00  0.00    -0.373 N 
ATOM     57  H   UNL     1     -49.920  26.962  22.789  1.00  0.00     0.161 HD
BRANCH  56  58
ATOM     58  C   UNL     1     -49.980  26.457  24.785  1.00  0.00     0.005 C 
ATOM     59  H   UNL     1     -49.426  25.574  24.452  1.00  0.00     0.045 H 
ATOM     60  H   UNL     1     -50.977  26.118  25.087  1.00  0.00     0.045 H 
ATOM     61  H   UNL     1     -49.453  26.872  25.650  1.00  0.00     0.045 H 
ENDBRANCH  56  58
ENDBRANCH  52  56
ENDBRANCH  40  41
ENDBRANCH  37  40
ENDBRANCH   3  37
BRANCH   4  62
ATOM     62  O   UNL     1     -46.407  34.788  29.585  1.00  0.00    -0.387 OA
ATOM     63  H   UNL     1     -47.027  34.045  29.455  1.00  0.00     0.211 HD
ENDBRANCH   4  62
TORSDOF 12
ENDMDL
MODEL 7
REMARK VINA RESULT:      -8.0      3.319      5.259
REMARK SMILES CCCC(=O)c1cn([C@@H]2O[C@H](COc3ccc4ccc(NC)nc4c3)[C@@H](O)[C@@H]2F)c2ncnc(N)c12
REMARK SMILES IDX 9 1 10 2 11 3 26 4 28 5 29 6 8 11 6 12 7 13 36 14 30 16
REMARK SMILES IDX 34 17 31 18 33 19 32 20 4 22 5 23 3 24 2 27 1 30 35 34 12 37
REMARK SMILES IDX 13 40 14 41 15 42 25 43 16 44 24 46 17 48 23 50 18 51 20 52
REMARK SMILES IDX 19 53 21 56 22 58 27 62
REMARK H PARENT 9 7 11 8 26 9 28 10 7 15 32 21 3 25 3 26 2 28 2 29 1 31 1 32
REMARK H PARENT 1 33 35 35 35 36 12 38 12 39 15 45 25 47 16 49 18 54 19 55
REMARK H PARENT 21 57 22 59 22 60 22 61 27 63
REMARK Flexibility Score: inf
ROOT
ATOM      1  C   UNL     1     -46.250  36.365  26.865  1.00  0.00     0.169 C 
ATOM      2  O   UNL     1     -46.949  35.408  26.045  1.00  0.00    -0.345 OA
ATOM      3  C   UNL     1     -46.754  34.102  26.631  1.00  0.00     0.123 C 
ATOM      4  C   UNL     1     -46.425  34.331  28.101  1.00  0.00     0.119 C 
ATOM      5  C   UNL     1     -45.633  35.620  28.041  1.00  0.00     0.173 C 
ATOM      6  F   UNL     1     -45.713  36.290  29.213  1.00  0.00    -0.239 F 
ATOM      7  H   UNL     1     -45.451  36.786  26.244  1.00  0.00     0.088 H 
ATOM      8  H   UNL     1     -45.906  33.640  26.108  1.00  0.00     0.067 H 
ATOM      9  H   UNL     1     -47.318  34.440  28.719  1.00  0.00     0.066 H 
ATOM     10  H   UNL     1     -44.574  35.411  27.854  1.00  0.00     0.074 H 
ENDROOT
BRANCH   1  11
ATOM     11  N   UNL     1     -47.147  37.463  27.197  1.00  0.00    -0.302 N 
ATOM     12  C   UNL     1     -48.985  38.537  27.920  1.00  0.00     0.049 A 
ATOM     13  C   UNL     1     -48.402  37.293  27.741  1.00  0.00     0.020 A 
ATOM     14  C   UNL     1     -48.017  39.505  27.486  1.00  0.00     0.072 A 
ATOM     15  H   UNL     1     -48.779  36.297  27.942  1.00  0.00     0.083 H 
ATOM     16  C   UNL     1     -46.906  38.803  27.029  1.00  0.00     0.148 A 
ATOM     17  C   UNL     1     -47.937  40.908  27.423  1.00  0.00     0.137 A 
ATOM     18  N   UNL     1     -45.785  39.338  26.516  1.00  0.00    -0.218 NA
ATOM     19  N   UNL     1     -46.834  41.478  26.903  1.00  0.00    -0.219 NA
ATOM     20  C   UNL     1     -45.835  40.680  26.495  1.00  0.00     0.120 A 
ATOM     21  H   UNL     1     -44.960  41.184  26.098  1.00  0.00     0.106 H 
BRANCH  12  22
ATOM     22  C   UNL     1     -50.333  38.794  28.436  1.00  0.00     0.165 C 
ATOM     23  O   UNL     1     -50.629  39.881  28.938  1.00  0.00    -0.294 OA
BRANCH  22  24
ATOM     24  C   UNL     1     -51.397  37.718  28.309  1.00  0.00     0.011 C 
ATOM     25  H   UNL     1     -51.870  37.766  27.323  1.00  0.00     0.035 H 
ATOM     26  H   UNL     1     -50.893  36.745  28.359  1.00  0.00     0.035 H 
BRANCH  24  27
ATOM     27  C   UNL     1     -52.424  37.838  29.429  1.00  0.00    -0.049 C 
ATOM     28  H   UNL     1     -53.438  37.876  29.014  1.00  0.00     0.027 H 
ATOM     29  H   UNL     1     -52.275  38.780  29.972  1.00  0.00     0.027 H 
BRANCH  27  30
ATOM     30  C   UNL     1     -52.325  36.675  30.402  1.00  0.00    -0.065 C 
ATOM     31  H   UNL     1     -51.769  36.963  31.300  1.00  0.00     0.023 H 
ATOM     32  H   UNL     1     -51.803  35.833  29.934  1.00  0.00     0.023 H 
ATOM     33  H   UNL     1     -53.318  36.331  30.706  1.00  0.00     0.023 H 
ENDBRANCH  27  30
ENDBRANCH  24  27
ENDBRANCH  22  24
ENDBRANCH  12  22
BRANCH  17  34
ATOM     34  N   UNL     1     -48.928  41.760  27.875  1.00  0.00    -0.383 N 
ATOM     35  H   UNL     1     -48.744  42.116  28.803  1.00  0.00     0.158 HD
ATOM     36  H   UNL     1     -49.284  42.421  27.183  1.00  0.00     0.158 HD
ENDBRANCH  17  34
ENDBRANCH   1  11
BRANCH   3  37
ATOM     37  C   UNL     1     -47.998  33.232  26.440  1.00  0.00     0.117 C 
ATOM     38  H   UNL     1     -48.895  33.813  26.681  1.00  0.00     0.073 H 
ATOM     39  H   UNL     1     -47.927  32.347  27.083  1.00  0.00     0.073 H 
BRANCH  37  40
ATOM     40  O   UNL     1     -48.055  32.818  25.069  1.00  0.00    -0.491 OA
BRANCH  40  41
ATOM     41  C   UNL     1     -48.501  31.549  24.822  1.00  0.00     0.121 A 
ATOM     42  C   UNL     1     -49.131  31.384  23.591  1.00  0.00    -0.019 A 
ATOM     43  C   UNL     1     -48.370  30.450  25.676  1.00  0.00     0.007 A 
ATOM     44  C   UNL     1     -49.630  30.137  23.219  1.00  0.00    -0.049 A 
ATOM     45  H   UNL     1     -49.240  32.233  22.921  1.00  0.00     0.066 H 
ATOM     46  C   UNL     1     -48.855  29.194  25.330  1.00  0.00     0.076 A 
ATOM     47  H   UNL     1     -47.883  30.538  26.641  1.00  0.00     0.069 H 
ATOM     48  C   UNL     1     -49.494  29.041  24.084  1.00  0.00     0.001 A 
ATOM     49  H   UNL     1     -50.124  30.028  22.256  1.00  0.00     0.063 H 
ATOM     50  N   UNL     1     -48.697  28.170  26.189  1.00  0.00    -0.231 NA
ATOM     51  C   UNL     1     -49.980  27.776  23.753  1.00  0.00    -0.049 A 
ATOM     52  C   UNL     1     -49.162  26.949  25.855  1.00  0.00     0.126 A 
ATOM     53  C   UNL     1     -49.817  26.724  24.649  1.00  0.00    -0.019 A 
ATOM     54  H   UNL     1     -50.492  27.601  22.810  1.00  0.00     0.063 H 
ATOM     55  H   UNL     1     -50.210  25.741  24.411  1.00  0.00     0.066 H 
BRANCH  52  56
ATOM     56  N   UNL     1     -49.039  25.867  26.746  1.00  0.00    -0.373 N 
ATOM     57  H   UNL     1     -49.859  25.275  26.659  1.00  0.00     0.161 HD
BRANCH  56  58
ATOM     58  C   UNL     1     -47.807  25.111  26.599  1.00  0.00     0.005 C 
ATOM     59  H   UNL     1     -47.172  25.608  25.858  1.00  0.00     0.045 H 
ATOM     60  H   UNL     1     -47.999  24.097  26.232  1.00  0.00     0.045 H 
ATOM     61  H   UNL     1     -47.246  25.065  27.537  1.00  0.00     0.045 H 
ENDBRANCH  56  58
ENDBRANCH  52  56
ENDBRANCH  40  41
ENDBRANCH  37  40
ENDBRANCH   3  37
BRANCH   4  62
ATOM     62  O   UNL     1     -45.656  33.260  28.642  1.00  0.00    -0.387 OA
ATOM     63  H   UNL     1     -46.276  32.527  28.818  1.00  0.00     0.211 HD
ENDBRANCH   4  62
TORSDOF 12
ENDMDL
