MODEL 1
REMARK VINA RESULT:      -8.2      0.000      0.000
REMARK SMILES CNc1cc(N2CCC3(CC2)CN(c2ccc(CN4CCC(C)(C)CC4)cc2)C(=O)N3)ncn1
REMARK SMILES IDX 6 1 7 2 8 3 9 4 10 5 11 6 12 7 13 8 29 9 30 10 31 11 5 23
REMARK SMILES IDX 3 24 4 25 34 26 33 28 32 29 2 31 1 33 14 37 15 38 28 39
REMARK SMILES IDX 16 40 27 42 17 44 18 47 19 50 20 51 26 52 21 53 25 56 22 59
REMARK SMILES IDX 23 64 24 68
REMARK H PARENT 7 12 7 13 8 14 8 15 10 16 10 17 11 18 11 19 12 20 12 21 31 22
REMARK H PARENT 4 27 33 30 2 32 1 34 1 35 1 36 15 41 28 43 16 45 27 46 18 48
REMARK H PARENT 18 49 20 54 20 55 26 57 26 58 21 60 21 61 25 62 25 63 23 65
REMARK H PARENT 23 66 23 67 24 69 24 70 24 71
REMARK Flexibility Score: inf
ROOT
ATOM      1  N   UNL     1     -45.935  37.376  28.261  1.00  0.00    -0.356 N 
ATOM      2  C   UNL     1     -47.111  37.967  27.603  1.00  0.00     0.021 C 
ATOM      3  C   UNL     1     -48.190  36.909  27.335  1.00  0.00    -0.010 C 
ATOM      4  C   UNL     1     -47.606  35.501  27.208  1.00  0.00     0.063 C 
ATOM      5  C   UNL     1     -46.828  35.114  28.490  1.00  0.00    -0.010 C 
ATOM      6  C   UNL     1     -46.243  36.325  29.228  1.00  0.00     0.021 C 
ATOM      7  C   UNL     1     -48.685  34.450  26.884  1.00  0.00     0.051 C 
ATOM      8  N   UNL     1     -48.037  33.540  25.958  1.00  0.00    -0.292 N 
ATOM      9  C   UNL     1     -46.878  34.145  25.438  1.00  0.00     0.322 C 
ATOM     10  O   UNL     1     -46.073  33.734  24.619  1.00  0.00    -0.248 OA
ATOM     11  N   UNL     1     -46.748  35.390  26.044  1.00  0.00    -0.330 N 
ATOM     12  H   UNL     1     -46.802  38.404  26.645  1.00  0.00     0.049 H 
ATOM     13  H   UNL     1     -47.563  38.764  28.207  1.00  0.00     0.049 H 
ATOM     14  H   UNL     1     -48.912  36.921  28.162  1.00  0.00     0.031 H 
ATOM     15  H   UNL     1     -48.752  37.194  26.437  1.00  0.00     0.031 H 
ATOM     16  H   UNL     1     -46.017  34.417  28.243  1.00  0.00     0.031 H 
ATOM     17  H   UNL     1     -47.477  34.584  29.200  1.00  0.00     0.031 H 
ATOM     18  H   UNL     1     -45.375  35.983  29.802  1.00  0.00     0.049 H 
ATOM     19  H   UNL     1     -46.969  36.702  29.960  1.00  0.00     0.049 H 
ATOM     20  H   UNL     1     -49.541  34.897  26.361  1.00  0.00     0.052 H 
ATOM     21  H   UNL     1     -49.040  33.929  27.778  1.00  0.00     0.052 H 
ATOM     22  H   UNL     1     -45.858  35.868  25.964  1.00  0.00     0.166 HD
ENDROOT
BRANCH   1  23
ATOM     23  C   UNL     1     -44.969  38.316  28.660  1.00  0.00     0.134 A 
ATOM     24  C   UNL     1     -43.774  40.341  28.322  1.00  0.00     0.131 A 
ATOM     25  C   UNL     1     -44.713  39.431  27.877  1.00  0.00     0.023 A 
ATOM     26  N   UNL     1     -43.102  40.169  29.465  1.00  0.00    -0.219 NA
ATOM     27  H   UNL     1     -45.239  39.597  26.947  1.00  0.00     0.070 H 
ATOM     28  C   UNL     1     -43.428  39.082  30.170  1.00  0.00     0.120 A 
ATOM     29  N   UNL     1     -44.336  38.155  29.834  1.00  0.00    -0.219 NA
ATOM     30  H   UNL     1     -42.907  38.934  31.109  1.00  0.00     0.106 H 
BRANCH  24  31
ATOM     31  N   UNL     1     -43.438  41.485  27.592  1.00  0.00    -0.373 N 
ATOM     32  H   UNL     1     -43.880  41.340  26.683  1.00  0.00     0.161 HD
BRANCH  31  33
ATOM     33  C   UNL     1     -42.007  41.705  27.453  1.00  0.00     0.005 C 
ATOM     34  H   UNL     1     -41.456  40.759  27.422  1.00  0.00     0.045 H 
ATOM     35  H   UNL     1     -41.613  42.331  28.260  1.00  0.00     0.045 H 
ATOM     36  H   UNL     1     -41.819  42.233  26.512  1.00  0.00     0.045 H 
ENDBRANCH  31  33
ENDBRANCH  24  31
ENDBRANCH   1  23
BRANCH   8  37
ATOM     37  C   UNL     1     -48.589  32.287  25.582  1.00  0.00     0.046 A 
ATOM     38  C   UNL     1     -48.082  31.081  26.076  1.00  0.00    -0.038 A 
ATOM     39  C   UNL     1     -49.673  32.218  24.694  1.00  0.00    -0.038 A 
ATOM     40  C   UNL     1     -48.640  29.850  25.707  1.00  0.00    -0.056 A 
ATOM     41  H   UNL     1     -47.245  31.057  26.767  1.00  0.00     0.064 H 
ATOM     42  C   UNL     1     -50.233  30.989  24.322  1.00  0.00    -0.056 A 
ATOM     43  H   UNL     1     -50.106  33.112  24.258  1.00  0.00     0.064 H 
ATOM     44  C   UNL     1     -49.731  29.790  24.834  1.00  0.00    -0.034 A 
ATOM     45  H   UNL     1     -48.214  28.937  26.116  1.00  0.00     0.063 H 
ATOM     46  H   UNL     1     -51.071  30.978  23.629  1.00  0.00     0.063 H 
BRANCH  44  47
ATOM     47  C   UNL     1     -50.327  28.462  24.431  1.00  0.00     0.023 C 
ATOM     48  H   UNL     1     -49.944  27.687  25.110  1.00  0.00     0.048 H 
ATOM     49  H   UNL     1     -51.404  28.480  24.650  1.00  0.00     0.048 H 
BRANCH  47  50
ATOM     50  N   UNL     1     -50.131  28.022  23.051  1.00  0.00    -0.299 NA
ATOM     51  C   UNL     1     -51.184  28.356  22.101  1.00  0.00    -0.001 C 
ATOM     52  C   UNL     1     -48.777  28.104  22.521  1.00  0.00    -0.001 C 
ATOM     53  C   UNL     1     -50.932  29.620  21.272  1.00  0.00    -0.035 C 
ATOM     54  H   UNL     1     -51.295  27.507  21.415  1.00  0.00     0.043 H 
ATOM     55  H   UNL     1     -52.157  28.436  22.601  1.00  0.00     0.043 H 
ATOM     56  C   UNL     1     -48.478  29.363  21.700  1.00  0.00    -0.035 C 
ATOM     57  H   UNL     1     -48.032  28.003  23.320  1.00  0.00     0.043 H 
ATOM     58  H   UNL     1     -48.616  27.226  21.882  1.00  0.00     0.043 H 
ATOM     59  C   UNL     1     -49.537  29.649  20.617  1.00  0.00    -0.033 C 
ATOM     60  H   UNL     1     -51.711  29.703  20.504  1.00  0.00     0.029 H 
ATOM     61  H   UNL     1     -51.049  30.501  21.913  1.00  0.00     0.029 H 
ATOM     62  H   UNL     1     -48.407  30.224  22.374  1.00  0.00     0.029 H 
ATOM     63  H   UNL     1     -47.487  29.260  21.240  1.00  0.00     0.029 H 
BRANCH  59  64
ATOM     64  C   UNL     1     -49.286  31.044  20.019  1.00  0.00    -0.060 C 
ATOM     65  H   UNL     1     -49.442  31.048  18.934  1.00  0.00     0.024 H 
ATOM     66  H   UNL     1     -49.964  31.788  20.453  1.00  0.00     0.024 H 
ATOM     67  H   UNL     1     -48.258  31.376  20.207  1.00  0.00     0.024 H 
ENDBRANCH  59  64
BRANCH  59  68
ATOM     68  C   UNL     1     -49.446  28.618  19.476  1.00  0.00    -0.060 C 
ATOM     69  H   UNL     1     -48.551  27.994  19.582  1.00  0.00     0.024 H 
ATOM     70  H   UNL     1     -50.315  27.951  19.481  1.00  0.00     0.024 H 
ATOM     71  H   UNL     1     -49.400  29.088  18.489  1.00  0.00     0.024 H 
ENDBRANCH  59  68
ENDBRANCH  47  50
ENDBRANCH  44  47
ENDBRANCH   8  37
TORSDOF 8
ENDMDL
MODEL 2
REMARK VINA RESULT:      -7.9      1.608      2.847
REMARK SMILES CNc1cc(N2CCC3(CC2)CN(c2ccc(CN4CCC(C)(C)CC4)cc2)C(=O)N3)ncn1
REMARK SMILES IDX 6 1 7 2 8 3 9 4 10 5 11 6 12 7 13 8 29 9 30 10 31 11 5 23
REMARK SMILES IDX 3 24 4 25 34 26 33 28 32 29 2 31 1 33 14 37 15 38 28 39
REMARK SMILES IDX 16 40 27 42 17 44 18 47 19 50 20 51 26 52 21 53 25 56 22 59
REMARK SMILES IDX 23 64 24 68
REMARK H PARENT 7 12 7 13 8 14 8 15 10 16 10 17 11 18 11 19 12 20 12 21 31 22
REMARK H PARENT 4 27 33 30 2 32 1 34 1 35 1 36 15 41 28 43 16 45 27 46 18 48
REMARK H PARENT 18 49 20 54 20 55 26 57 26 58 21 60 21 61 25 62 25 63 23 65
REMARK H PARENT 23 66 23 67 24 69 24 70 24 71
REMARK Flexibility Score: inf
ROOT
ATOM      1  N   UNL     1     -46.040  37.176  28.220  1.00  0.00    -0.356 N 
ATOM      2  C   UNL     1     -47.159  37.782  27.481  1.00  0.00     0.021 C 
ATOM      3  C   UNL     1     -48.237  36.742  27.149  1.00  0.00    -0.010 C 
ATOM      4  C   UNL     1     -47.673  35.323  27.073  1.00  0.00     0.063 C 
ATOM      5  C   UNL     1     -46.989  34.932  28.406  1.00  0.00    -0.010 C 
ATOM      6  C   UNL     1     -46.431  36.139  29.172  1.00  0.00     0.021 C 
ATOM      7  C   UNL     1     -48.748  34.288  26.686  1.00  0.00     0.051 C 
ATOM      8  N   UNL     1     -48.057  33.359  25.811  1.00  0.00    -0.292 N 
ATOM      9  C   UNL     1     -46.854  33.937  25.365  1.00  0.00     0.322 C 
ATOM     10  O   UNL     1     -46.004  33.505  24.605  1.00  0.00    -0.248 OA
ATOM     11  N   UNL     1     -46.742  35.186  25.970  1.00  0.00    -0.330 N 
ATOM     12  H   UNL     1     -46.778  38.206  26.543  1.00  0.00     0.049 H 
ATOM     13  H   UNL     1     -47.634  38.593  28.047  1.00  0.00     0.049 H 
ATOM     14  H   UNL     1     -49.012  36.774  27.927  1.00  0.00     0.031 H 
ATOM     15  H   UNL     1     -48.733  37.029  26.214  1.00  0.00     0.031 H 
ATOM     16  H   UNL     1     -46.176  34.219  28.220  1.00  0.00     0.031 H 
ATOM     17  H   UNL     1     -47.693  34.422  29.076  1.00  0.00     0.031 H 
ATOM     18  H   UNL     1     -45.611  35.787  29.806  1.00  0.00     0.049 H 
ATOM     19  H   UNL     1     -47.197  36.536  29.852  1.00  0.00     0.049 H 
ATOM     20  H   UNL     1     -49.558  34.746  26.104  1.00  0.00     0.052 H 
ATOM     21  H   UNL     1     -49.171  33.782  27.558  1.00  0.00     0.052 H 
ATOM     22  H   UNL     1     -45.839  35.647  25.946  1.00  0.00     0.166 HD
ENDROOT
BRANCH   1  23
ATOM     23  C   UNL     1     -45.086  38.102  28.675  1.00  0.00     0.134 A 
ATOM     24  C   UNL     1     -43.843  40.109  28.410  1.00  0.00     0.131 A 
ATOM     25  C   UNL     1     -44.768  39.212  27.909  1.00  0.00     0.023 A 
ATOM     26  N   UNL     1     -43.241  39.927  29.589  1.00  0.00    -0.219 NA
ATOM     27  H   UNL     1     -45.236  39.386  26.951  1.00  0.00     0.070 H 
ATOM     28  C   UNL     1     -43.624  38.844  30.273  1.00  0.00     0.120 A 
ATOM     29  N   UNL     1     -44.524  37.931  29.884  1.00  0.00    -0.219 NA
ATOM     30  H   UNL     1     -43.160  38.689  31.241  1.00  0.00     0.106 H 
BRANCH  24  31
ATOM     31  N   UNL     1     -43.448  41.248  27.701  1.00  0.00    -0.373 N 
ATOM     32  H   UNL     1     -42.937  40.878  26.898  1.00  0.00     0.161 HD
BRANCH  31  33
ATOM     33  C   UNL     1     -42.629  42.173  28.467  1.00  0.00     0.005 C 
ATOM     34  H   UNL     1     -42.508  43.129  27.947  1.00  0.00     0.045 H 
ATOM     35  H   UNL     1     -41.644  41.753  28.691  1.00  0.00     0.045 H 
ATOM     36  H   UNL     1     -43.121  42.374  29.425  1.00  0.00     0.045 H 
ENDBRANCH  31  33
ENDBRANCH  24  31
ENDBRANCH   1  23
BRANCH   8  37
ATOM     37  C   UNL     1     -48.606  32.112  25.410  1.00  0.00     0.046 A 
ATOM     38  C   UNL     1     -48.348  30.932  26.114  1.00  0.00    -0.038 A 
ATOM     39  C   UNL     1     -49.434  32.025  24.280  1.00  0.00    -0.038 A 
ATOM     40  C   UNL     1     -48.904  29.710  25.715  1.00  0.00    -0.056 A 
ATOM     41  H   UNL     1     -47.717  30.924  26.998  1.00  0.00     0.064 H 
ATOM     42  C   UNL     1     -49.990  30.804  23.878  1.00  0.00    -0.056 A 
ATOM     43  H   UNL     1     -49.663  32.896  23.677  1.00  0.00     0.064 H 
ATOM     44  C   UNL     1     -49.742  29.632  24.598  1.00  0.00    -0.034 A 
ATOM     45  H   UNL     1     -48.677  28.817  26.293  1.00  0.00     0.063 H 
ATOM     46  H   UNL     1     -50.625  30.777  22.995  1.00  0.00     0.063 H 
BRANCH  44  47
ATOM     47  C   UNL     1     -50.333  28.312  24.164  1.00  0.00     0.023 C 
ATOM     48  H   UNL     1     -51.181  28.077  24.823  1.00  0.00     0.048 H 
ATOM     49  H   UNL     1     -50.806  28.446  23.181  1.00  0.00     0.048 H 
BRANCH  47  50
ATOM     50  N   UNL     1     -49.441  27.156  24.108  1.00  0.00    -0.299 NA
ATOM     51  C   UNL     1     -48.043  27.422  23.792  1.00  0.00    -0.001 C 
ATOM     52  C   UNL     1     -49.659  26.108  25.096  1.00  0.00    -0.001 C 
ATOM     53  C   UNL     1     -47.115  27.529  25.006  1.00  0.00    -0.035 C 
ATOM     54  H   UNL     1     -47.686  26.606  23.152  1.00  0.00     0.043 H 
ATOM     55  H   UNL     1     -47.942  28.322  23.175  1.00  0.00     0.043 H 
ATOM     56  C   UNL     1     -48.761  26.190  26.335  1.00  0.00    -0.035 C 
ATOM     57  H   UNL     1     -50.710  26.071  25.408  1.00  0.00     0.043 H 
ATOM     58  H   UNL     1     -49.484  25.143  24.602  1.00  0.00     0.043 H 
ATOM     59  C   UNL     1     -47.267  26.355  25.994  1.00  0.00    -0.033 C 
ATOM     60  H   UNL     1     -46.077  27.594  24.655  1.00  0.00     0.029 H 
ATOM     61  H   UNL     1     -47.312  28.471  25.530  1.00  0.00     0.029 H 
ATOM     62  H   UNL     1     -49.085  27.029  26.961  1.00  0.00     0.029 H 
ATOM     63  H   UNL     1     -48.911  25.288  26.943  1.00  0.00     0.029 H 
BRANCH  59  64
ATOM     64  C   UNL     1     -46.485  26.671  27.281  1.00  0.00    -0.060 C 
ATOM     65  H   UNL     1     -45.409  26.508  27.145  1.00  0.00     0.024 H 
ATOM     66  H   UNL     1     -46.626  27.715  27.584  1.00  0.00     0.024 H 
ATOM     67  H   UNL     1     -46.814  26.033  28.110  1.00  0.00     0.024 H 
ENDBRANCH  59  64
BRANCH  59  68
ATOM     68  C   UNL     1     -46.694  25.056  25.394  1.00  0.00    -0.060 C 
ATOM     69  H   UNL     1     -47.456  24.524  24.814  1.00  0.00     0.024 H 
ATOM     70  H   UNL     1     -45.858  25.272  24.720  1.00  0.00     0.024 H 
ATOM     71  H   UNL     1     -46.328  24.367  26.161  1.00  0.00     0.024 H 
ENDBRANCH  59  68
ENDBRANCH  47  50
ENDBRANCH  44  47
ENDBRANCH   8  37
TORSDOF 8
ENDMDL
MODEL 3
REMARK VINA RESULT:      -7.9      2.566     11.475
REMARK SMILES CNc1cc(N2CCC3(CC2)CN(c2ccc(CN4CCC(C)(C)CC4)cc2)C(=O)N3)ncn1
REMARK SMILES IDX 6 1 7 2 8 3 9 4 10 5 11 6 12 7 13 8 29 9 30 10 31 11 5 23
REMARK SMILES IDX 3 24 4 25 34 26 33 28 32 29 2 31 1 33 14 37 15 38 28 39
REMARK SMILES IDX 16 40 27 42 17 44 18 47 19 50 20 51 26 52 21 53 25 56 22 59
REMARK SMILES IDX 23 64 24 68
REMARK H PARENT 7 12 7 13 8 14 8 15 10 16 10 17 11 18 11 19 12 20 12 21 31 22
REMARK H PARENT 4 27 33 30 2 32 1 34 1 35 1 36 15 41 28 43 16 45 27 46 18 48
REMARK H PARENT 18 49 20 54 20 55 26 57 26 58 21 60 21 61 25 62 25 63 23 65
REMARK H PARENT 23 66 23 67 24 69 24 70 24 71
REMARK Flexibility Score: inf
ROOT
ATOM      1  N   UNL     1     -47.861  30.638  25.160  1.00  0.00    -0.356 N 
ATOM      2  C   UNL     1     -49.177  31.237  25.434  1.00  0.00     0.021 C 
ATOM      3  C   UNL     1     -49.101  32.770  25.443  1.00  0.00    -0.010 C 
ATOM      4  C   UNL     1     -47.705  33.281  25.797  1.00  0.00     0.063 C 
ATOM      5  C   UNL     1     -46.651  32.731  24.804  1.00  0.00    -0.010 C 
ATOM      6  C   UNL     1     -47.045  31.377  24.199  1.00  0.00     0.021 C 
ATOM      7  C   UNL     1     -47.646  34.820  25.859  1.00  0.00     0.051 C 
ATOM      8  N   UNL     1     -46.761  35.104  26.973  1.00  0.00    -0.292 N 
ATOM      9  C   UNL     1     -46.616  33.949  27.765  1.00  0.00     0.322 C 
ATOM     10  O   UNL     1     -45.988  33.772  28.795  1.00  0.00    -0.248 OA
ATOM     11  N   UNL     1     -47.346  32.932  27.158  1.00  0.00    -0.330 N 
ATOM     12  H   UNL     1     -49.526  30.896  26.417  1.00  0.00     0.049 H 
ATOM     13  H   UNL     1     -49.926  30.941  24.689  1.00  0.00     0.049 H 
ATOM     14  H   UNL     1     -49.375  33.144  24.447  1.00  0.00     0.031 H 
ATOM     15  H   UNL     1     -49.859  33.159  26.133  1.00  0.00     0.031 H 
ATOM     16  H   UNL     1     -45.678  32.632  25.301  1.00  0.00     0.031 H 
ATOM     17  H   UNL     1     -46.496  33.425  23.968  1.00  0.00     0.031 H 
ATOM     18  H   UNL     1     -46.126  30.857  23.907  1.00  0.00     0.049 H 
ATOM     19  H   UNL     1     -47.618  31.533  23.275  1.00  0.00     0.049 H 
ATOM     20  H   UNL     1     -48.626  35.252  26.100  1.00  0.00     0.052 H 
ATOM     21  H   UNL     1     -47.276  35.260  24.928  1.00  0.00     0.052 H 
ATOM     22  H   UNL     1     -47.176  31.979  27.459  1.00  0.00     0.166 HD
ENDROOT
BRANCH   1  23
ATOM     23  C   UNL     1     -47.889  29.242  25.000  1.00  0.00     0.134 A 
ATOM     24  C   UNL     1     -48.705  27.095  25.605  1.00  0.00     0.131 A 
ATOM     25  C   UNL     1     -48.691  28.460  25.817  1.00  0.00     0.023 A 
ATOM     26  N   UNL     1     -47.964  26.514  24.658  1.00  0.00    -0.219 NA
ATOM     27  H   UNL     1     -49.301  28.901  26.592  1.00  0.00     0.070 H 
ATOM     28  C   UNL     1     -47.240  27.342  23.899  1.00  0.00     0.120 A 
ATOM     29  N   UNL     1     -47.175  28.676  24.012  1.00  0.00    -0.219 NA
ATOM     30  H   UNL     1     -46.645  26.891  23.113  1.00  0.00     0.106 H 
BRANCH  24  31
ATOM     31  N   UNL     1     -49.470  26.226  26.390  1.00  0.00    -0.373 N 
ATOM     32  H   UNL     1     -49.085  25.303  26.189  1.00  0.00     0.161 HD
BRANCH  31  33
ATOM     33  C   UNL     1     -50.897  26.274  26.114  1.00  0.00     0.005 C 
ATOM     34  H   UNL     1     -51.253  25.337  25.671  1.00  0.00     0.045 H 
ATOM     35  H   UNL     1     -51.156  27.109  25.455  1.00  0.00     0.045 H 
ATOM     36  H   UNL     1     -51.437  26.424  27.055  1.00  0.00     0.045 H 
ENDBRANCH  31  33
ENDBRANCH  24  31
ENDBRANCH   1  23
BRANCH   8  37
ATOM     37  C   UNL     1     -46.236  36.395  27.242  1.00  0.00     0.046 A 
ATOM     38  C   UNL     1     -46.749  37.542  26.630  1.00  0.00    -0.038 A 
ATOM     39  C   UNL     1     -45.173  36.563  28.143  1.00  0.00    -0.038 A 
ATOM     40  C   UNL     1     -46.231  38.813  26.910  1.00  0.00    -0.056 A 
ATOM     41  H   UNL     1     -47.572  37.489  25.923  1.00  0.00     0.064 H 
ATOM     42  C   UNL     1     -44.650  37.832  28.425  1.00  0.00    -0.056 A 
ATOM     43  H   UNL     1     -44.713  35.717  28.641  1.00  0.00     0.064 H 
ATOM     44  C   UNL     1     -45.182  38.975  27.821  1.00  0.00    -0.034 A 
ATOM     45  H   UNL     1     -46.662  39.678  26.411  1.00  0.00     0.063 H 
ATOM     46  H   UNL     1     -43.824  37.920  29.126  1.00  0.00     0.063 H 
BRANCH  44  47
ATOM     47  C   UNL     1     -44.618  40.345  28.116  1.00  0.00     0.023 C 
ATOM     48  H   UNL     1     -45.448  41.065  28.143  1.00  0.00     0.048 H 
ATOM     49  H   UNL     1     -44.242  40.353  29.149  1.00  0.00     0.048 H 
BRANCH  47  50
ATOM     50  N   UNL     1     -43.576  40.854  27.227  1.00  0.00    -0.299 NA
ATOM     51  C   UNL     1     -43.963  41.112  25.846  1.00  0.00    -0.001 C 
ATOM     52  C   UNL     1     -42.640  41.816  27.793  1.00  0.00    -0.001 C 
ATOM     53  C   UNL     1     -44.327  42.567  25.537  1.00  0.00    -0.035 C 
ATOM     54  H   UNL     1     -43.121  40.821  25.205  1.00  0.00     0.043 H 
ATOM     55  H   UNL     1     -44.785  40.456  25.537  1.00  0.00     0.043 H 
ATOM     56  C   UNL     1     -42.979  43.286  27.521  1.00  0.00    -0.035 C 
ATOM     57  H   UNL     1     -42.519  41.662  28.872  1.00  0.00     0.043 H 
ATOM     58  H   UNL     1     -41.649  41.604  27.372  1.00  0.00     0.043 H 
ATOM     59  C   UNL     1     -43.274  43.577  26.037  1.00  0.00    -0.033 C 
ATOM     60  H   UNL     1     -44.469  42.677  24.454  1.00  0.00     0.029 H 
ATOM     61  H   UNL     1     -45.296  42.802  25.990  1.00  0.00     0.029 H 
ATOM     62  H   UNL     1     -43.845  43.574  28.127  1.00  0.00     0.029 H 
ATOM     63  H   UNL     1     -42.148  43.912  27.870  1.00  0.00     0.029 H 
BRANCH  59  64
ATOM     64  C   UNL     1     -43.836  45.004  25.903  1.00  0.00    -0.060 C 
ATOM     65  H   UNL     1     -43.899  45.502  26.877  1.00  0.00     0.024 H 
ATOM     66  H   UNL     1     -43.201  45.620  25.256  1.00  0.00     0.024 H 
ATOM     67  H   UNL     1     -44.844  44.993  25.471  1.00  0.00     0.024 H 
ENDBRANCH  59  64
BRANCH  59  68
ATOM     68  C   UNL     1     -41.987  43.491  25.194  1.00  0.00    -0.060 C 
ATOM     69  H   UNL     1     -42.194  43.061  24.207  1.00  0.00     0.024 H 
ATOM     70  H   UNL     1     -41.555  44.485  25.037  1.00  0.00     0.024 H 
ATOM     71  H   UNL     1     -41.219  42.870  25.665  1.00  0.00     0.024 H 
ENDBRANCH  59  68
ENDBRANCH  47  50
ENDBRANCH  44  47
ENDBRANCH   8  37
TORSDOF 8
ENDMDL
MODEL 4
REMARK VINA RESULT:      -7.9      2.189     11.497
REMARK SMILES CNc1cc(N2CCC3(CC2)CN(c2ccc(CN4CCC(C)(C)CC4)cc2)C(=O)N3)ncn1
REMARK SMILES IDX 6 1 7 2 8 3 9 4 10 5 11 6 12 7 13 8 29 9 30 10 31 11 5 23
REMARK SMILES IDX 3 24 4 25 34 26 33 28 32 29 2 31 1 33 14 37 15 38 28 39
REMARK SMILES IDX 16 40 27 42 17 44 18 47 19 50 20 51 26 52 21 53 25 56 22 59
REMARK SMILES IDX 23 64 24 68
REMARK H PARENT 7 12 7 13 8 14 8 15 10 16 10 17 11 18 11 19 12 20 12 21 31 22
REMARK H PARENT 4 27 33 30 2 32 1 34 1 35 1 36 15 41 28 43 16 45 27 46 18 48
REMARK H PARENT 18 49 20 54 20 55 26 57 26 58 21 60 21 61 25 62 25 63 23 65
REMARK H PARENT 23 66 23 67 24 69 24 70 24 71
REMARK Flexibility Score: inf
ROOT
ATOM      1  N   UNL     1     -48.924  30.107  25.105  1.00  0.00    -0.356 N 
ATOM      2  C   UNL     1     -48.712  30.753  23.799  1.00  0.00     0.021 C 
ATOM      3  C   UNL     1     -47.719  31.917  23.908  1.00  0.00    -0.010 C 
ATOM      4  C   UNL     1     -47.682  32.522  25.312  1.00  0.00     0.063 C 
ATOM      5  C   UNL     1     -47.313  31.445  26.362  1.00  0.00    -0.010 C 
ATOM      6  C   UNL     1     -47.732  30.029  25.946  1.00  0.00     0.021 C 
ATOM      7  C   UNL     1     -46.724  33.726  25.403  1.00  0.00     0.051 C 
ATOM      8  N   UNL     1     -47.401  34.660  26.284  1.00  0.00    -0.292 N 
ATOM      9  C   UNL     1     -48.758  34.303  26.396  1.00  0.00     0.322 C 
ATOM     10  O   UNL     1     -49.666  34.836  27.010  1.00  0.00    -0.248 OA
ATOM     11  N   UNL     1     -48.947  33.143  25.650  1.00  0.00    -0.330 N 
ATOM     12  H   UNL     1     -49.671  31.141  23.433  1.00  0.00     0.049 H 
ATOM     13  H   UNL     1     -48.326  30.049  23.051  1.00  0.00     0.049 H 
ATOM     14  H   UNL     1     -46.715  31.552  23.652  1.00  0.00     0.031 H 
ATOM     15  H   UNL     1     -47.970  32.671  23.152  1.00  0.00     0.031 H 
ATOM     16  H   UNL     1     -47.774  31.686  27.329  1.00  0.00     0.031 H 
ATOM     17  H   UNL     1     -46.230  31.422  26.541  1.00  0.00     0.031 H 
ATOM     18  H   UNL     1     -47.869  29.436  26.856  1.00  0.00     0.049 H 
ATOM     19  H   UNL     1     -46.919  29.549  25.385  1.00  0.00     0.049 H 
ATOM     20  H   UNL     1     -46.603  34.220  24.430  1.00  0.00     0.052 H 
ATOM     21  H   UNL     1     -45.741  33.446  25.792  1.00  0.00     0.052 H 
ATOM     22  H   UNL     1     -49.802  32.617  25.797  1.00  0.00     0.166 HD
ENDROOT
BRANCH   1  23
ATOM     23  C   UNL     1     -49.715  28.946  25.048  1.00  0.00     0.134 A 
ATOM     24  C   UNL     1     -50.195  26.722  25.729  1.00  0.00     0.131 A 
ATOM     25  C   UNL     1     -49.373  27.831  25.796  1.00  0.00     0.023 A 
ATOM     26  N   UNL     1     -51.286  26.690  24.958  1.00  0.00    -0.219 NA
ATOM     27  H   UNL     1     -48.497  27.825  26.428  1.00  0.00     0.070 H 
ATOM     28  C   UNL     1     -51.556  27.815  24.290  1.00  0.00     0.120 A 
ATOM     29  N   UNL     1     -50.835  28.945  24.306  1.00  0.00    -0.219 NA
ATOM     30  H   UNL     1     -52.447  27.816  23.672  1.00  0.00     0.106 H 
BRANCH  24  31
ATOM     31  N   UNL     1     -49.921  25.546  26.435  1.00  0.00    -0.373 N 
ATOM     32  H   UNL     1     -50.385  25.681  27.334  1.00  0.00     0.161 HD
BRANCH  31  33
ATOM     33  C   UNL     1     -48.503  25.272  26.610  1.00  0.00     0.005 C 
ATOM     34  H   UNL     1     -47.884  26.036  26.127  1.00  0.00     0.045 H 
ATOM     35  H   UNL     1     -48.230  24.285  26.224  1.00  0.00     0.045 H 
ATOM     36  H   UNL     1     -48.269  25.279  27.680  1.00  0.00     0.045 H 
ENDBRANCH  31  33
ENDBRANCH  24  31
ENDBRANCH   1  23
BRANCH   8  37
ATOM     37  C   UNL     1     -46.772  35.807  26.834  1.00  0.00     0.046 A 
ATOM     38  C   UNL     1     -45.683  35.704  27.706  1.00  0.00    -0.038 A 
ATOM     39  C   UNL     1     -47.227  37.096  26.517  1.00  0.00    -0.038 A 
ATOM     40  C   UNL     1     -45.063  36.843  28.235  1.00  0.00    -0.056 A 
ATOM     41  H   UNL     1     -45.276  34.740  27.995  1.00  0.00     0.064 H 
ATOM     42  C   UNL     1     -46.610  38.237  27.045  1.00  0.00    -0.056 A 
ATOM     43  H   UNL     1     -48.077  37.251  25.862  1.00  0.00     0.064 H 
ATOM     44  C   UNL     1     -45.511  38.125  27.901  1.00  0.00    -0.034 A 
ATOM     45  H   UNL     1     -44.218  36.716  28.908  1.00  0.00     0.063 H 
ATOM     46  H   UNL     1     -46.994  39.219  26.777  1.00  0.00     0.063 H 
BRANCH  44  47
ATOM     47  C   UNL     1     -44.846  39.352  28.479  1.00  0.00     0.023 C 
ATOM     48  H   UNL     1     -45.622  40.103  28.688  1.00  0.00     0.048 H 
ATOM     49  H   UNL     1     -44.459  39.104  29.477  1.00  0.00     0.048 H 
BRANCH  47  50
ATOM     50  N   UNL     1     -43.780  39.976  27.698  1.00  0.00    -0.299 NA
ATOM     51  C   UNL     1     -44.147  40.494  26.386  1.00  0.00    -0.001 C 
ATOM     52  C   UNL     1     -42.815  40.785  28.430  1.00  0.00    -0.001 C 
ATOM     53  C   UNL     1     -44.456  41.993  26.345  1.00  0.00    -0.035 C 
ATOM     54  H   UNL     1     -43.311  40.292  25.704  1.00  0.00     0.043 H 
ATOM     55  H   UNL     1     -44.990  39.935  25.962  1.00  0.00     0.043 H 
ATOM     56  C   UNL     1     -43.099  42.291  28.428  1.00  0.00    -0.035 C 
ATOM     57  H   UNL     1     -42.708  40.434  29.463  1.00  0.00     0.043 H 
ATOM     58  H   UNL     1     -41.829  40.616  27.978  1.00  0.00     0.043 H 
ATOM     59  C   UNL     1     -43.372  42.856  27.020  1.00  0.00    -0.033 C 
ATOM     60  H   UNL     1     -44.586  42.302  25.300  1.00  0.00     0.029 H 
ATOM     61  H   UNL     1     -45.420  42.176  26.832  1.00  0.00     0.029 H 
ATOM     62  H   UNL     1     -43.959  42.496  29.075  1.00  0.00     0.029 H 
ATOM     63  H   UNL     1     -42.249  42.813  28.885  1.00  0.00     0.029 H 
BRANCH  59  64
ATOM     64  C   UNL     1     -43.882  44.303  27.146  1.00  0.00    -0.060 C 
ATOM     65  H   UNL     1     -44.962  44.364  26.967  1.00  0.00     0.024 H 
ATOM     66  H   UNL     1     -43.689  44.705  28.148  1.00  0.00     0.024 H 
ATOM     67  H   UNL     1     -43.389  44.961  26.420  1.00  0.00     0.024 H 
ENDBRANCH  59  64
BRANCH  59  68
ATOM     68  C   UNL     1     -42.083  42.877  26.177  1.00  0.00    -0.060 C 
ATOM     69  H   UNL     1     -41.403  42.074  26.483  1.00  0.00     0.024 H 
ATOM     70  H   UNL     1     -42.308  42.731  25.115  1.00  0.00     0.024 H 
ATOM     71  H   UNL     1     -41.536  43.820  26.270  1.00  0.00     0.024 H 
ENDBRANCH  59  68
ENDBRANCH  47  50
ENDBRANCH  44  47
ENDBRANCH   8  37
TORSDOF 8
ENDMDL
MODEL 5
REMARK VINA RESULT:      -7.3      3.143      5.940
REMARK SMILES CNc1cc(N2CCC3(CC2)CN(c2ccc(CN4CCC(C)(C)CC4)cc2)C(=O)N3)ncn1
REMARK SMILES IDX 6 1 7 2 8 3 9 4 10 5 11 6 12 7 13 8 29 9 30 10 31 11 5 23
REMARK SMILES IDX 3 24 4 25 34 26 33 28 32 29 2 31 1 33 14 37 15 38 28 39
REMARK SMILES IDX 16 40 27 42 17 44 18 47 19 50 20 51 26 52 21 53 25 56 22 59
REMARK SMILES IDX 23 64 24 68
REMARK H PARENT 7 12 7 13 8 14 8 15 10 16 10 17 11 18 11 19 12 20 12 21 31 22
REMARK H PARENT 4 27 33 30 2 32 1 34 1 35 1 36 15 41 28 43 16 45 27 46 18 48
REMARK H PARENT 18 49 20 54 20 55 26 57 26 58 21 60 21 61 25 62 25 63 23 65
REMARK H PARENT 23 66 23 67 24 69 24 70 24 71
REMARK Flexibility Score: inf
ROOT
ATOM      1  N   UNL     1     -44.195  42.909  27.066  1.00  0.00    -0.356 N 
ATOM      2  C   UNL     1     -43.346  42.378  28.144  1.00  0.00     0.021 C 
ATOM      3  C   UNL     1     -43.217  40.852  28.052  1.00  0.00    -0.010 C 
ATOM      4  C   UNL     1     -44.410  40.209  27.345  1.00  0.00     0.063 C 
ATOM      5  C   UNL     1     -44.578  40.787  25.918  1.00  0.00    -0.010 C 
ATOM      6  C   UNL     1     -44.052  42.222  25.785  1.00  0.00     0.021 C 
ATOM      7  C   UNL     1     -44.304  38.672  27.303  1.00  0.00     0.051 C 
ATOM      8  N   UNL     1     -45.665  38.210  27.507  1.00  0.00    -0.292 N 
ATOM      9  C   UNL     1     -46.446  39.260  28.023  1.00  0.00     0.322 C 
ATOM     10  O   UNL     1     -47.619  39.282  28.355  1.00  0.00    -0.248 OA
ATOM     11  N   UNL     1     -45.631  40.385  28.107  1.00  0.00    -0.330 N 
ATOM     12  H   UNL     1     -43.795  42.636  29.112  1.00  0.00     0.049 H 
ATOM     13  H   UNL     1     -42.335  42.804  28.118  1.00  0.00     0.049 H 
ATOM     14  H   UNL     1     -42.301  40.606  27.498  1.00  0.00     0.031 H 
ATOM     15  H   UNL     1     -43.081  40.445  29.062  1.00  0.00     0.031 H 
ATOM     16  H   UNL     1     -45.634  40.764  25.622  1.00  0.00     0.031 H 
ATOM     17  H   UNL     1     -44.042  40.176  25.179  1.00  0.00     0.031 H 
ATOM     18  H   UNL     1     -44.589  42.704  24.961  1.00  0.00     0.049 H 
ATOM     19  H   UNL     1     -42.993  42.206  25.494  1.00  0.00     0.049 H 
ATOM     20  H   UNL     1     -43.698  38.286  28.133  1.00  0.00     0.052 H 
ATOM     21  H   UNL     1     -43.893  38.309  26.356  1.00  0.00     0.052 H 
ATOM     22  H   UNL     1     -46.076  41.286  28.240  1.00  0.00     0.166 HD
ENDROOT
BRANCH   1  23
ATOM     23  C   UNL     1     -44.240  44.313  27.011  1.00  0.00     0.134 A 
ATOM     24  C   UNL     1     -44.412  46.341  25.787  1.00  0.00     0.131 A 
ATOM     25  C   UNL     1     -44.346  44.961  25.790  1.00  0.00     0.023 A 
ATOM     26  N   UNL     1     -44.360  47.059  26.912  1.00  0.00    -0.219 NA
ATOM     27  H   UNL     1     -44.388  44.409  24.863  1.00  0.00     0.070 H 
ATOM     28  C   UNL     1     -44.284  46.355  28.046  1.00  0.00     0.120 A 
ATOM     29  N   UNL     1     -44.235  45.020  28.153  1.00  0.00    -0.219 NA
ATOM     30  H   UNL     1     -44.259  46.919  28.971  1.00  0.00     0.106 H 
BRANCH  24  31
ATOM     31  N   UNL     1     -44.503  47.081  24.603  1.00  0.00    -0.373 N 
ATOM     32  H   UNL     1     -45.397  47.569  24.682  1.00  0.00     0.161 HD
BRANCH  31  33
ATOM     33  C   UNL     1     -44.446  46.278  23.393  1.00  0.00     0.005 C 
ATOM     34  H   UNL     1     -44.032  45.283  23.589  1.00  0.00     0.045 H 
ATOM     35  H   UNL     1     -43.860  46.768  22.608  1.00  0.00     0.045 H 
ATOM     36  H   UNL     1     -45.462  46.146  23.005  1.00  0.00     0.045 H 
ENDBRANCH  31  33
ENDBRANCH  24  31
ENDBRANCH   1  23
BRANCH   8  37
ATOM     37  C   UNL     1     -46.069  36.863  27.307  1.00  0.00     0.046 A 
ATOM     38  C   UNL     1     -47.162  36.534  26.499  1.00  0.00    -0.038 A 
ATOM     39  C   UNL     1     -45.375  35.808  27.918  1.00  0.00    -0.038 A 
ATOM     40  C   UNL     1     -47.545  35.202  26.299  1.00  0.00    -0.056 A 
ATOM     41  H   UNL     1     -47.745  37.298  25.993  1.00  0.00     0.064 H 
ATOM     42  C   UNL     1     -45.756  34.475  27.722  1.00  0.00    -0.056 A 
ATOM     43  H   UNL     1     -44.528  35.990  28.571  1.00  0.00     0.064 H 
ATOM     44  C   UNL     1     -46.840  34.154  26.899  1.00  0.00    -0.034 A 
ATOM     45  H   UNL     1     -48.402  34.992  25.663  1.00  0.00     0.063 H 
ATOM     46  H   UNL     1     -45.195  33.685  28.216  1.00  0.00     0.063 H 
BRANCH  44  47
ATOM     47  C   UNL     1     -47.259  32.718  26.689  1.00  0.00     0.023 C 
ATOM     48  H   UNL     1     -46.381  32.074  26.834  1.00  0.00     0.048 H 
ATOM     49  H   UNL     1     -47.927  32.425  27.512  1.00  0.00     0.048 H 
BRANCH  47  50
ATOM     50  N   UNL     1     -47.894  32.377  25.418  1.00  0.00    -0.299 NA
ATOM     51  C   UNL     1     -47.018  32.262  24.259  1.00  0.00    -0.001 C 
ATOM     52  C   UNL     1     -48.982  31.410  25.464  1.00  0.00    -0.001 C 
ATOM     53  C   UNL     1     -46.576  30.835  23.920  1.00  0.00    -0.035 C 
ATOM     54  H   UNL     1     -47.554  32.675  23.395  1.00  0.00     0.043 H 
ATOM     55  H   UNL     1     -46.134  32.902  24.367  1.00  0.00     0.043 H 
ATOM     56  C   UNL     1     -48.578  29.966  25.148  1.00  0.00    -0.035 C 
ATOM     57  H   UNL     1     -49.499  31.443  26.431  1.00  0.00     0.043 H 
ATOM     58  H   UNL     1     -49.739  31.727  24.735  1.00  0.00     0.043 H 
ATOM     59  C   UNL     1     -47.748  29.835  23.856  1.00  0.00    -0.033 C 
ATOM     60  H   UNL     1     -46.038  30.846  22.964  1.00  0.00     0.029 H 
ATOM     61  H   UNL     1     -45.851  30.495  24.668  1.00  0.00     0.029 H 
ATOM     62  H   UNL     1     -48.006  29.559  25.990  1.00  0.00     0.029 H 
ATOM     63  H   UNL     1     -49.484  29.351  25.078  1.00  0.00     0.029 H 
BRANCH  59  64
ATOM     64  C   UNL     1     -47.189  28.405  23.756  1.00  0.00    -0.060 C 
ATOM     65  H   UNL     1     -46.777  28.068  24.715  1.00  0.00     0.024 H 
ATOM     66  H   UNL     1     -47.971  27.694  23.464  1.00  0.00     0.024 H 
ATOM     67  H   UNL     1     -46.386  28.345  23.012  1.00  0.00     0.024 H 
ENDBRANCH  59  64
BRANCH  59  68
ATOM     68  C   UNL     1     -48.622  30.093  22.614  1.00  0.00    -0.060 C 
ATOM     69  H   UNL     1     -48.471  29.313  21.860  1.00  0.00     0.024 H 
ATOM     70  H   UNL     1     -49.686  30.096  22.878  1.00  0.00     0.024 H 
ATOM     71  H   UNL     1     -48.401  31.053  22.138  1.00  0.00     0.024 H 
ENDBRANCH  59  68
ENDBRANCH  47  50
ENDBRANCH  44  47
ENDBRANCH   8  37
TORSDOF 8
ENDMDL
MODEL 6
REMARK VINA RESULT:      -7.1      2.877      3.534
REMARK SMILES CNc1cc(N2CCC3(CC2)CN(c2ccc(CN4CCC(C)(C)CC4)cc2)C(=O)N3)ncn1
REMARK SMILES IDX 6 1 7 2 8 3 9 4 10 5 11 6 12 7 13 8 29 9 30 10 31 11 5 23
REMARK SMILES IDX 3 24 4 25 34 26 33 28 32 29 2 31 1 33 14 37 15 38 28 39
REMARK SMILES IDX 16 40 27 42 17 44 18 47 19 50 20 51 26 52 21 53 25 56 22 59
REMARK SMILES IDX 23 64 24 68
REMARK H PARENT 7 12 7 13 8 14 8 15 10 16 10 17 11 18 11 19 12 20 12 21 31 22
REMARK H PARENT 4 27 33 30 2 32 1 34 1 35 1 36 15 41 28 43 16 45 27 46 18 48
REMARK H PARENT 18 49 20 54 20 55 26 57 26 58 21 60 21 61 25 62 25 63 23 65
REMARK H PARENT 23 66 23 67 24 69 24 70 24 71
REMARK Flexibility Score: inf
ROOT
ATOM      1  N   UNL     1     -47.693  39.154  27.795  1.00  0.00    -0.356 N 
ATOM      2  C   UNL     1     -47.107  38.467  28.958  1.00  0.00     0.021 C 
ATOM      3  C   UNL     1     -46.480  37.126  28.556  1.00  0.00    -0.010 C 
ATOM      4  C   UNL     1     -47.119  36.539  27.297  1.00  0.00     0.063 C 
ATOM      5  C   UNL     1     -46.998  37.527  26.110  1.00  0.00    -0.010 C 
ATOM      6  C   UNL     1     -46.940  38.994  26.553  1.00  0.00     0.021 C 
ATOM      7  C   UNL     1     -46.524  35.166  26.928  1.00  0.00     0.051 C 
ATOM      8  N   UNL     1     -47.659  34.397  26.451  1.00  0.00    -0.292 N 
ATOM      9  C   UNL     1     -48.854  35.024  26.851  1.00  0.00     0.322 C 
ATOM     10  O   UNL     1     -50.015  34.693  26.679  1.00  0.00    -0.248 OA
ATOM     11  N   UNL     1     -48.508  36.191  27.525  1.00  0.00    -0.330 N 
ATOM     12  H   UNL     1     -47.898  38.280  29.696  1.00  0.00     0.049 H 
ATOM     13  H   UNL     1     -46.331  39.072  29.444  1.00  0.00     0.049 H 
ATOM     14  H   UNL     1     -45.408  37.276  28.374  1.00  0.00     0.031 H 
ATOM     15  H   UNL     1     -46.551  36.433  29.404  1.00  0.00     0.031 H 
ATOM     16  H   UNL     1     -47.841  37.394  25.420  1.00  0.00     0.031 H 
ATOM     17  H   UNL     1     -46.091  37.330  25.523  1.00  0.00     0.031 H 
ATOM     18  H   UNL     1     -47.311  39.612  25.728  1.00  0.00     0.049 H 
ATOM     19  H   UNL     1     -45.895  39.294  26.716  1.00  0.00     0.049 H 
ATOM     20  H   UNL     1     -46.124  34.649  27.810  1.00  0.00     0.052 H 
ATOM     21  H   UNL     1     -45.741  35.242  26.168  1.00  0.00     0.052 H 
ATOM     22  H   UNL     1     -49.233  36.881  27.684  1.00  0.00     0.166 HD
ENDROOT
BRANCH   1  23
ATOM     23  C   UNL     1     -48.159  40.451  28.070  1.00  0.00     0.134 A 
ATOM     24  C   UNL     1     -48.591  42.690  27.406  1.00  0.00     0.131 A 
ATOM     25  C   UNL     1     -48.097  41.437  27.098  1.00  0.00     0.023 A 
ATOM     26  N   UNL     1     -49.105  42.978  28.605  1.00  0.00    -0.219 NA
ATOM     27  H   UNL     1     -47.687  41.236  26.119  1.00  0.00     0.070 H 
ATOM     28  C   UNL     1     -49.149  41.964  29.475  1.00  0.00     0.120 A 
ATOM     29  N   UNL     1     -48.716  40.714  29.265  1.00  0.00    -0.219 NA
ATOM     30  H   UNL     1     -49.579  42.173  30.448  1.00  0.00     0.106 H 
BRANCH  24  31
ATOM     31  N   UNL     1     -48.556  43.751  26.494  1.00  0.00    -0.373 N 
ATOM     32  H   UNL     1     -48.003  43.392  25.715  1.00  0.00     0.161 HD
BRANCH  31  33
ATOM     33  C   UNL     1     -47.985  44.976  27.028  1.00  0.00     0.005 C 
ATOM     34  H   UNL     1     -47.720  45.678  26.229  1.00  0.00     0.045 H 
ATOM     35  H   UNL     1     -47.103  44.778  27.646  1.00  0.00     0.045 H 
ATOM     36  H   UNL     1     -48.727  45.465  27.669  1.00  0.00     0.045 H 
ENDBRANCH  31  33
ENDBRANCH  24  31
ENDBRANCH   1  23
BRANCH   8  37
ATOM     37  C   UNL     1     -47.530  33.150  25.785  1.00  0.00     0.046 A 
ATOM     38  C   UNL     1     -48.417  32.094  26.018  1.00  0.00    -0.038 A 
ATOM     39  C   UNL     1     -46.498  32.936  24.859  1.00  0.00    -0.038 A 
ATOM     40  C   UNL     1     -48.287  30.872  25.347  1.00  0.00    -0.056 A 
ATOM     41  H   UNL     1     -49.240  32.188  26.720  1.00  0.00     0.064 H 
ATOM     42  C   UNL     1     -46.364  31.714  24.186  1.00  0.00    -0.056 A 
ATOM     43  H   UNL     1     -45.764  33.704  24.641  1.00  0.00     0.064 H 
ATOM     44  C   UNL     1     -47.266  30.670  24.413  1.00  0.00    -0.034 A 
ATOM     45  H   UNL     1     -49.000  30.078  25.559  1.00  0.00     0.063 H 
ATOM     46  H   UNL     1     -45.549  31.586  23.478  1.00  0.00     0.063 H 
BRANCH  44  47
ATOM     47  C   UNL     1     -47.122  29.349  23.695  1.00  0.00     0.023 C 
ATOM     48  H   UNL     1     -46.076  29.238  23.375  1.00  0.00     0.048 H 
ATOM     49  H   UNL     1     -47.250  28.538  24.426  1.00  0.00     0.048 H 
BRANCH  47  50
ATOM     50  N   UNL     1     -47.997  29.100  22.552  1.00  0.00    -0.299 NA
ATOM     51  C   UNL     1     -49.220  28.352  22.814  1.00  0.00    -0.001 C 
ATOM     52  C   UNL     1     -48.132  30.177  21.580  1.00  0.00    -0.001 C 
ATOM     53  C   UNL     1     -50.471  29.210  23.028  1.00  0.00    -0.035 C 
ATOM     54  H   UNL     1     -49.395  27.690  21.957  1.00  0.00     0.043 H 
ATOM     55  H   UNL     1     -49.093  27.673  23.666  1.00  0.00     0.043 H 
ATOM     56  C   UNL     1     -49.362  31.070  21.770  1.00  0.00    -0.035 C 
ATOM     57  H   UNL     1     -47.229  30.798  21.551  1.00  0.00     0.043 H 
ATOM     58  H   UNL     1     -48.184  29.720  20.583  1.00  0.00     0.043 H 
ATOM     59  C   UNL     1     -50.673  30.275  21.931  1.00  0.00    -0.033 C 
ATOM     60  H   UNL     1     -51.349  28.554  23.081  1.00  0.00     0.029 H 
ATOM     61  H   UNL     1     -50.408  29.704  24.004  1.00  0.00     0.029 H 
ATOM     62  H   UNL     1     -49.214  31.706  22.650  1.00  0.00     0.029 H 
ATOM     63  H   UNL     1     -49.440  31.755  20.915  1.00  0.00     0.029 H 
BRANCH  59  64
ATOM     64  C   UNL     1     -51.798  31.234  22.356  1.00  0.00    -0.060 C 
ATOM     65  H   UNL     1     -52.588  31.285  21.598  1.00  0.00     0.024 H 
ATOM     66  H   UNL     1     -52.262  30.909  23.295  1.00  0.00     0.024 H 
ATOM     67  H   UNL     1     -51.417  32.251  22.504  1.00  0.00     0.024 H 
ENDBRANCH  59  64
BRANCH  59  68
ATOM     68  C   UNL     1     -51.083  29.619  20.599  1.00  0.00    -0.060 C 
ATOM     69  H   UNL     1     -50.955  28.531  20.642  1.00  0.00     0.024 H 
ATOM     70  H   UNL     1     -52.137  29.818  20.374  1.00  0.00     0.024 H 
ATOM     71  H   UNL     1     -50.493  29.983  19.752  1.00  0.00     0.024 H 
ENDBRANCH  59  68
ENDBRANCH  47  50
ENDBRANCH  44  47
ENDBRANCH   8  37
TORSDOF 8
ENDMDL
MODEL 7
REMARK VINA RESULT:      -6.8      3.381      4.621
REMARK SMILES CNc1cc(N2CCC3(CC2)CN(c2ccc(CN4CCC(C)(C)CC4)cc2)C(=O)N3)ncn1
REMARK SMILES IDX 6 1 7 2 8 3 9 4 10 5 11 6 12 7 13 8 29 9 30 10 31 11 5 23
REMARK SMILES IDX 3 24 4 25 34 26 33 28 32 29 2 31 1 33 14 37 15 38 28 39
REMARK SMILES IDX 16 40 27 42 17 44 18 47 19 50 20 51 26 52 21 53 25 56 22 59
REMARK SMILES IDX 23 64 24 68
REMARK H PARENT 7 12 7 13 8 14 8 15 10 16 10 17 11 18 11 19 12 20 12 21 31 22
REMARK H PARENT 4 27 33 30 2 32 1 34 1 35 1 36 15 41 28 43 16 45 27 46 18 48
REMARK H PARENT 18 49 20 54 20 55 26 57 26 58 21 60 21 61 25 62 25 63 23 65
REMARK H PARENT 23 66 23 67 24 69 24 70 24 71
REMARK Flexibility Score: inf
ROOT
ATOM      1  N   UNL     1     -47.858  39.914  27.917  1.00  0.00    -0.356 N 
ATOM      2  C   UNL     1     -47.214  39.272  29.075  1.00  0.00     0.021 C 
ATOM      3  C   UNL     1     -46.570  37.935  28.684  1.00  0.00    -0.010 C 
ATOM      4  C   UNL     1     -47.239  37.300  27.465  1.00  0.00     0.063 C 
ATOM      5  C   UNL     1     -47.186  38.259  26.250  1.00  0.00    -0.010 C 
ATOM      6  C   UNL     1     -47.147  39.739  26.652  1.00  0.00     0.021 C 
ATOM      7  C   UNL     1     -46.626  35.932  27.110  1.00  0.00     0.051 C 
ATOM      8  N   UNL     1     -47.758  35.124  26.696  1.00  0.00    -0.292 N 
ATOM      9  C   UNL     1     -48.952  35.734  27.123  1.00  0.00     0.322 C 
ATOM     10  O   UNL     1     -50.110  35.371  27.004  1.00  0.00    -0.248 OA
ATOM     11  N   UNL     1     -48.610  36.926  27.754  1.00  0.00    -0.330 N 
ATOM     12  H   UNL     1     -47.972  39.086  29.846  1.00  0.00     0.049 H 
ATOM     13  H   UNL     1     -46.434  39.907  29.515  1.00  0.00     0.049 H 
ATOM     14  H   UNL     1     -45.508  38.106  28.458  1.00  0.00     0.031 H 
ATOM     15  H   UNL     1     -46.592  37.263  29.551  1.00  0.00     0.031 H 
ATOM     16  H   UNL     1     -48.051  38.088  25.596  1.00  0.00     0.031 H 
ATOM     17  H   UNL     1     -46.297  38.067  25.635  1.00  0.00     0.031 H 
ATOM     18  H   UNL     1     -47.563  40.325  25.826  1.00  0.00     0.049 H 
ATOM     19  H   UNL     1     -46.106  40.067  26.769  1.00  0.00     0.049 H 
ATOM     20  H   UNL     1     -46.181  35.448  27.989  1.00  0.00     0.052 H 
ATOM     21  H   UNL     1     -45.873  36.007  26.319  1.00  0.00     0.052 H 
ATOM     22  H   UNL     1     -49.346  37.604  27.922  1.00  0.00     0.166 HD
ENDROOT
BRANCH   1  23
ATOM     23  C   UNL     1     -48.345  41.206  28.176  1.00  0.00     0.134 A 
ATOM     24  C   UNL     1     -48.815  43.429  27.483  1.00  0.00     0.131 A 
ATOM     25  C   UNL     1     -48.301  42.181  27.191  1.00  0.00     0.023 A 
ATOM     26  N   UNL     1     -49.331  43.724  28.680  1.00  0.00    -0.219 NA
ATOM     27  H   UNL     1     -47.889  41.973  26.214  1.00  0.00     0.070 H 
ATOM     28  C   UNL     1     -49.358  42.721  29.563  1.00  0.00     0.120 A 
ATOM     29  N   UNL     1     -48.905  41.475  29.368  1.00  0.00    -0.219 NA
ATOM     30  H   UNL     1     -49.789  42.936  30.534  1.00  0.00     0.106 H 
BRANCH  24  31
ATOM     31  N   UNL     1     -48.799  44.478  26.558  1.00  0.00    -0.373 N 
ATOM     32  H   UNL     1     -48.184  44.145  25.814  1.00  0.00     0.161 HD
BRANCH  31  33
ATOM     33  C   UNL     1     -48.334  45.744  27.101  1.00  0.00     0.005 C 
ATOM     34  H   UNL     1     -48.610  46.585  26.454  1.00  0.00     0.045 H 
ATOM     35  H   UNL     1     -47.251  45.746  27.258  1.00  0.00     0.045 H 
ATOM     36  H   UNL     1     -48.803  45.906  28.077  1.00  0.00     0.045 H 
ENDBRANCH  31  33
ENDBRANCH  24  31
ENDBRANCH   1  23
BRANCH   8  37
ATOM     37  C   UNL     1     -47.624  33.864  26.057  1.00  0.00     0.046 A 
ATOM     38  C   UNL     1     -48.641  32.905  26.097  1.00  0.00    -0.038 A 
ATOM     39  C   UNL     1     -46.453  33.537  25.356  1.00  0.00    -0.038 A 
ATOM     40  C   UNL     1     -48.502  31.668  25.454  1.00  0.00    -0.056 A 
ATOM     41  H   UNL     1     -49.575  33.089  26.620  1.00  0.00     0.064 H 
ATOM     42  C   UNL     1     -46.311  32.300  24.713  1.00  0.00    -0.056 A 
ATOM     43  H   UNL     1     -45.617  34.224  25.298  1.00  0.00     0.064 H 
ATOM     44  C   UNL     1     -47.339  31.355  24.743  1.00  0.00    -0.034 A 
ATOM     45  H   UNL     1     -49.320  30.953  25.511  1.00  0.00     0.063 H 
ATOM     46  H   UNL     1     -45.386  32.083  24.182  1.00  0.00     0.063 H 
BRANCH  44  47
ATOM     47  C   UNL     1     -47.188  30.018  24.057  1.00  0.00     0.023 C 
ATOM     48  H   UNL     1     -47.072  30.191  22.978  1.00  0.00     0.048 H 
ATOM     49  H   UNL     1     -46.222  29.582  24.349  1.00  0.00     0.048 H 
BRANCH  47  50
ATOM     50  N   UNL     1     -48.240  29.026  24.268  1.00  0.00    -0.299 NA
ATOM     51  C   UNL     1     -48.062  27.734  23.617  1.00  0.00    -0.001 C 
ATOM     52  C   UNL     1     -48.833  28.967  25.597  1.00  0.00    -0.001 C 
ATOM     53  C   UNL     1     -47.459  26.640  24.503  1.00  0.00    -0.035 C 
ATOM     54  H   UNL     1     -49.047  27.397  23.271  1.00  0.00     0.043 H 
ATOM     55  H   UNL     1     -47.467  27.832  22.701  1.00  0.00     0.043 H 
ATOM     56  C   UNL     1     -48.244  27.897  26.522  1.00  0.00    -0.035 C 
ATOM     57  H   UNL     1     -48.788  29.945  26.093  1.00  0.00     0.043 H 
ATOM     58  H   UNL     1     -49.906  28.769  25.474  1.00  0.00     0.043 H 
ATOM     59  C   UNL     1     -48.165  26.504  25.867  1.00  0.00    -0.033 C 
ATOM     60  H   UNL     1     -47.493  25.685  23.964  1.00  0.00     0.029 H 
ATOM     61  H   UNL     1     -46.396  26.852  24.666  1.00  0.00     0.029 H 
ATOM     62  H   UNL     1     -47.242  28.206  26.839  1.00  0.00     0.029 H 
ATOM     63  H   UNL     1     -48.847  27.848  27.438  1.00  0.00     0.029 H 
BRANCH  59  64
ATOM     64  C   UNL     1     -47.347  25.565  26.771  1.00  0.00    -0.060 C 
ATOM     65  H   UNL     1     -47.085  24.636  26.250  1.00  0.00     0.024 H 
ATOM     66  H   UNL     1     -46.412  26.039  27.091  1.00  0.00     0.024 H 
ATOM     67  H   UNL     1     -47.910  25.292  27.671  1.00  0.00     0.024 H 
ENDBRANCH  59  64
BRANCH  59  68
ATOM     68  C   UNL     1     -49.571  25.897  25.698  1.00  0.00    -0.060 C 
ATOM     69  H   UNL     1     -49.511  24.822  25.493  1.00  0.00     0.024 H 
ATOM     70  H   UNL     1     -50.165  26.025  26.609  1.00  0.00     0.024 H 
ATOM     71  H   UNL     1     -50.130  26.354  24.876  1.00  0.00     0.024 H 
ENDBRANCH  59  68
ENDBRANCH  47  50
ENDBRANCH  44  47
ENDBRANCH   8  37
TORSDOF 8
ENDMDL
