MODEL 1
REMARK VINA RESULT:     -10.8      0.000      0.000
REMARK SMILES CCNc1ccc2ccc(CC[C@H]3C[C@@H](n4cc(C5CCCC5)c5c(N)ncnc54)[C@H](O)[C@@H]3O)cc2n1
REMARK SMILES IDX 11 1 10 4 4 5 5 6 37 7 6 8 36 10 7 11 35 13 8 14 9 16 3 19
REMARK SMILES IDX 2 21 1 24 12 28 13 31 14 32 33 33 15 35 31 38 34 42 16 44
REMARK SMILES IDX 17 45 30 46 18 47 24 49 29 50 25 51 28 52 27 53 19 55 20 56
REMARK SMILES IDX 23 57 21 59 22 62 26 69 32 72
REMARK H PARENT 11 2 11 3 5 9 6 12 35 15 8 17 9 18 3 20 2 22 2 23 1 25 1 26
REMARK H PARENT 1 27 12 29 12 30 13 34 14 36 14 37 33 39 15 40 31 41 34 43
REMARK H PARENT 17 48 28 54 19 58 20 60 20 61 23 63 23 64 21 65 21 66 22 67
REMARK H PARENT 22 68 26 70 26 71 32 73
REMARK Flexibility Score: inf
ROOT
ATOM      1  C   UNL     1     -48.221  35.539  26.910  1.00  0.00    -0.027 C 
ATOM      2  H   UNL     1     -49.002  36.089  26.374  1.00  0.00     0.032 H 
ATOM      3  H   UNL     1     -48.675  35.209  27.854  1.00  0.00     0.032 H 
ENDROOT
BRANCH   1   4
ATOM      4  C   UNL     1     -47.823  34.330  26.100  1.00  0.00    -0.046 A 
ATOM      5  C   UNL     1     -48.892  29.970  24.507  1.00  0.00     0.126 A 
ATOM      6  C   UNL     1     -47.667  29.840  23.869  1.00  0.00    -0.019 A 
ATOM      7  N   UNL     1     -49.229  31.068  25.207  1.00  0.00    -0.231 NA
ATOM      8  C   UNL     1     -46.758  30.891  23.938  1.00  0.00    -0.049 A 
ATOM      9  H   UNL     1     -47.408  28.929  23.344  1.00  0.00     0.066 H 
ATOM     10  C   UNL     1     -48.354  32.088  25.275  1.00  0.00     0.073 A 
ATOM     11  C   UNL     1     -47.093  32.046  24.650  1.00  0.00     0.000 A 
ATOM     12  H   UNL     1     -45.795  30.798  23.445  1.00  0.00     0.063 H 
ATOM     13  C   UNL     1     -48.693  33.232  25.988  1.00  0.00    -0.033 A 
ATOM     14  C   UNL     1     -46.211  33.135  24.753  1.00  0.00    -0.053 A 
ATOM     15  H   UNL     1     -49.665  33.262  26.476  1.00  0.00     0.065 H 
ATOM     16  C   UNL     1     -46.574  34.270  25.477  1.00  0.00    -0.058 A 
ATOM     17  H   UNL     1     -45.236  33.103  24.274  1.00  0.00     0.063 H 
ATOM     18  H   UNL     1     -45.877  35.101  25.553  1.00  0.00     0.063 H 
BRANCH   5  19
ATOM     19  N   UNL     1     -49.848  28.950  24.494  1.00  0.00    -0.370 N 
ATOM     20  H   UNL     1     -50.542  29.290  23.826  1.00  0.00     0.162 HD
BRANCH  19  21
ATOM     21  C   UNL     1     -49.322  27.649  24.095  1.00  0.00     0.013 C 
ATOM     22  H   UNL     1     -49.813  27.299  23.178  1.00  0.00     0.049 H 
ATOM     23  H   UNL     1     -48.244  27.703  23.910  1.00  0.00     0.049 H 
BRANCH  21  24
ATOM     24  C   UNL     1     -49.572  26.644  25.209  1.00  0.00    -0.048 C 
ATOM     25  H   UNL     1     -49.079  25.691  24.996  1.00  0.00     0.025 H 
ATOM     26  H   UNL     1     -50.646  26.459  25.321  1.00  0.00     0.025 H 
ATOM     27  H   UNL     1     -49.187  27.015  26.166  1.00  0.00     0.025 H 
ENDBRANCH  21  24
ENDBRANCH  19  21
ENDBRANCH   5  19
ENDBRANCH   1   4
BRANCH   1  28
ATOM     28  C   UNL     1     -47.013  36.438  27.191  1.00  0.00    -0.044 C 
ATOM     29  H   UNL     1     -47.350  37.473  27.327  1.00  0.00     0.027 H 
ATOM     30  H   UNL     1     -46.362  36.445  26.307  1.00  0.00     0.027 H 
BRANCH  28  31
ATOM     31  C   UNL     1     -46.191  35.967  28.403  1.00  0.00    -0.010 C 
ATOM     32  C   UNL     1     -44.768  36.557  28.378  1.00  0.00    -0.024 C 
ATOM     33  C   UNL     1     -46.724  36.464  29.748  1.00  0.00     0.085 C 
ATOM     34  H   UNL     1     -46.121  34.872  28.385  1.00  0.00     0.033 H 
ATOM     35  C   UNL     1     -44.828  37.879  29.173  1.00  0.00     0.064 C 
ATOM     36  H   UNL     1     -44.352  36.632  27.372  1.00  0.00     0.029 H 
ATOM     37  H   UNL     1     -44.106  35.869  28.922  1.00  0.00     0.029 H 
ATOM     38  C   UNL     1     -46.221  37.907  29.838  1.00  0.00     0.101 C 
ATOM     39  H   UNL     1     -47.809  36.398  29.862  1.00  0.00     0.063 H 
ATOM     40  H   UNL     1     -44.034  37.851  29.931  1.00  0.00     0.056 H 
ATOM     41  H   UNL     1     -46.909  38.577  29.310  1.00  0.00     0.065 H 
BRANCH  33  42
ATOM     42  O   UNL     1     -46.136  35.691  30.799  1.00  0.00    -0.390 OA
ATOM     43  H   UNL     1     -46.782  35.740  31.536  1.00  0.00     0.211 HD
ENDBRANCH  33  42
BRANCH  35  44
ATOM     44  N   UNL     1     -44.598  39.116  28.433  1.00  0.00    -0.326 N 
ATOM     45  C   UNL     1     -45.301  39.608  27.366  1.00  0.00     0.010 A 
ATOM     46  C   UNL     1     -43.615  40.015  28.776  1.00  0.00     0.146 A 
ATOM     47  C   UNL     1     -44.741  40.815  26.972  1.00  0.00    -0.014 A 
ATOM     48  H   UNL     1     -46.141  39.072  26.948  1.00  0.00     0.082 H 
ATOM     49  C   UNL     1     -43.660  41.079  27.886  1.00  0.00     0.065 A 
ATOM     50  N   UNL     1     -42.772  39.866  29.818  1.00  0.00    -0.218 NA
ATOM     51  C   UNL     1     -42.699  42.088  28.084  1.00  0.00     0.136 A 
ATOM     52  C   UNL     1     -41.899  40.882  29.890  1.00  0.00     0.120 A 
ATOM     53  N   UNL     1     -41.821  41.967  29.100  1.00  0.00    -0.219 NA
ATOM     54  H   UNL     1     -41.165  40.827  30.689  1.00  0.00     0.106 H 
BRANCH  47  55
ATOM     55  C   UNL     1     -45.174  41.675  25.820  1.00  0.00    -0.014 C 
ATOM     56  C   UNL     1     -44.067  42.117  24.859  1.00  0.00    -0.046 C 
ATOM     57  C   UNL     1     -45.783  43.011  26.256  1.00  0.00    -0.046 C 
ATOM     58  H   UNL     1     -45.913  41.119  25.229  1.00  0.00     0.035 H 
ATOM     59  C   UNL     1     -44.739  43.219  24.054  1.00  0.00    -0.053 C 
ATOM     60  H   UNL     1     -43.713  41.300  24.224  1.00  0.00     0.027 H 
ATOM     61  H   UNL     1     -43.204  42.533  25.392  1.00  0.00     0.027 H 
ATOM     62  C   UNL     1     -45.623  43.952  25.059  1.00  0.00    -0.053 C 
ATOM     63  H   UNL     1     -45.252  43.427  27.121  1.00  0.00     0.027 H 
ATOM     64  H   UNL     1     -46.835  42.909  26.545  1.00  0.00     0.027 H 
ATOM     65  H   UNL     1     -44.016  43.885  23.575  1.00  0.00     0.027 H 
ATOM     66  H   UNL     1     -45.362  42.779  23.265  1.00  0.00     0.027 H 
ATOM     67  H   UNL     1     -46.591  44.204  24.614  1.00  0.00     0.027 H 
ATOM     68  H   UNL     1     -45.154  44.889  25.379  1.00  0.00     0.027 H 
ENDBRANCH  47  55
BRANCH  51  69
ATOM     69  N   UNL     1     -42.587  43.240  27.317  1.00  0.00    -0.383 N 
ATOM     70  H   UNL     1     -43.312  43.899  27.578  1.00  0.00     0.158 HD
ATOM     71  H   UNL     1     -42.482  43.079  26.327  1.00  0.00     0.158 HD
ENDBRANCH  51  69
ENDBRANCH  35  44
BRANCH  38  72
ATOM     72  O   UNL     1     -46.163  38.319  31.207  1.00  0.00    -0.388 OA
ATOM     73  H   UNL     1     -46.417  39.268  31.213  1.00  0.00     0.211 HD
ENDBRANCH  38  72
ENDBRANCH  28  31
ENDBRANCH   1  28
TORSDOF 11
ENDMDL
MODEL 2
REMARK VINA RESULT:      -9.8      1.614      2.522
REMARK SMILES CCNc1ccc2ccc(CC[C@H]3C[C@@H](n4cc(C5CCCC5)c5c(N)ncnc54)[C@H](O)[C@@H]3O)cc2n1
REMARK SMILES IDX 11 1 10 4 4 5 5 6 37 7 6 8 36 10 7 11 35 13 8 14 9 16 3 19
REMARK SMILES IDX 2 21 1 24 12 28 13 31 14 32 33 33 15 35 31 38 34 42 16 44
REMARK SMILES IDX 17 45 30 46 18 47 24 49 29 50 25 51 28 52 27 53 19 55 20 56
REMARK SMILES IDX 23 57 21 59 22 62 26 69 32 72
REMARK H PARENT 11 2 11 3 5 9 6 12 35 15 8 17 9 18 3 20 2 22 2 23 1 25 1 26
REMARK H PARENT 1 27 12 29 12 30 13 34 14 36 14 37 33 39 15 40 31 41 34 43
REMARK H PARENT 17 48 28 54 19 58 20 60 20 61 23 63 23 64 21 65 21 66 22 67
REMARK H PARENT 22 68 26 70 26 71 32 73
REMARK Flexibility Score: inf
ROOT
ATOM      1  C   UNL     1     -48.322  35.254  26.941  1.00  0.00    -0.027 C 
ATOM      2  H   UNL     1     -49.232  35.690  26.514  1.00  0.00     0.032 H 
ATOM      3  H   UNL     1     -48.594  34.904  27.944  1.00  0.00     0.032 H 
ENDROOT
BRANCH   1   4
ATOM      4  C   UNL     1     -47.897  34.077  26.099  1.00  0.00    -0.046 A 
ATOM      5  C   UNL     1     -48.758  29.646  24.577  1.00  0.00     0.126 A 
ATOM      6  C   UNL     1     -47.578  29.605  23.849  1.00  0.00    -0.019 A 
ATOM      7  N   UNL     1     -49.122  30.718  25.303  1.00  0.00    -0.231 NA
ATOM      8  C   UNL     1     -46.746  30.721  23.854  1.00  0.00    -0.049 A 
ATOM      9  H   UNL     1     -47.292  28.714  23.303  1.00  0.00     0.066 H 
ATOM     10  C   UNL     1     -48.322  31.799  25.310  1.00  0.00     0.073 A 
ATOM     11  C   UNL     1     -47.111  31.849  24.592  1.00  0.00     0.000 A 
ATOM     12  H   UNL     1     -45.818  30.697  23.290  1.00  0.00     0.063 H 
ATOM     13  C   UNL     1     -48.690  32.917  26.050  1.00  0.00    -0.033 A 
ATOM     14  C   UNL     1     -46.307  33.000  24.633  1.00  0.00    -0.053 A 
ATOM     15  H   UNL     1     -49.622  32.876  26.608  1.00  0.00     0.065 H 
ATOM     16  C   UNL     1     -46.697  34.107  25.385  1.00  0.00    -0.058 A 
ATOM     17  H   UNL     1     -45.370  33.039  24.082  1.00  0.00     0.063 H 
ATOM     18  H   UNL     1     -46.059  34.987  25.411  1.00  0.00     0.063 H 
BRANCH   5  19
ATOM     19  N   UNL     1     -49.634  28.559  24.632  1.00  0.00    -0.370 N 
ATOM     20  H   UNL     1     -49.518  28.119  23.717  1.00  0.00     0.162 HD
BRANCH  19  21
ATOM     21  C   UNL     1     -49.348  27.619  25.711  1.00  0.00     0.013 C 
ATOM     22  H   UNL     1     -48.419  27.072  25.510  1.00  0.00     0.049 H 
ATOM     23  H   UNL     1     -49.241  28.143  26.667  1.00  0.00     0.049 H 
BRANCH  21  24
ATOM     24  C   UNL     1     -50.496  26.627  25.828  1.00  0.00    -0.048 C 
ATOM     25  H   UNL     1     -50.228  25.793  26.484  1.00  0.00     0.025 H 
ATOM     26  H   UNL     1     -50.752  26.222  24.844  1.00  0.00     0.025 H 
ATOM     27  H   UNL     1     -51.389  27.107  26.244  1.00  0.00     0.025 H 
ENDBRANCH  21  24
ENDBRANCH  19  21
ENDBRANCH   5  19
ENDBRANCH   1   4
BRANCH   1  28
ATOM     28  C   UNL     1     -47.205  36.300  27.031  1.00  0.00    -0.044 C 
ATOM     29  H   UNL     1     -47.646  37.299  27.142  1.00  0.00     0.027 H 
ATOM     30  H   UNL     1     -46.655  36.315  26.082  1.00  0.00     0.027 H 
BRANCH  28  31
ATOM     31  C   UNL     1     -46.213  36.011  28.171  1.00  0.00    -0.010 C 
ATOM     32  C   UNL     1     -44.931  36.854  28.024  1.00  0.00    -0.024 C 
ATOM     33  C   UNL     1     -46.715  36.426  29.555  1.00  0.00     0.085 C 
ATOM     34  H   UNL     1     -45.942  34.948  28.150  1.00  0.00     0.033 H 
ATOM     35  C   UNL     1     -45.170  38.156  28.817  1.00  0.00     0.064 C 
ATOM     36  H   UNL     1     -44.621  36.985  26.985  1.00  0.00     0.029 H 
ATOM     37  H   UNL     1     -44.110  36.309  28.511  1.00  0.00     0.029 H 
ATOM     38  C   UNL     1     -46.483  37.938  29.598  1.00  0.00     0.101 C 
ATOM     39  H   UNL     1     -47.756  36.162  29.760  1.00  0.00     0.063 H 
ATOM     40  H   UNL     1     -44.324  38.289  29.505  1.00  0.00     0.056 H 
ATOM     41  H   UNL     1     -47.326  38.460  29.128  1.00  0.00     0.065 H 
BRANCH  33  42
ATOM     42  O   UNL     1     -45.910  35.795  30.554  1.00  0.00    -0.390 OA
ATOM     43  H   UNL     1     -45.733  36.499  31.214  1.00  0.00     0.211 HD
ENDBRANCH  33  42
BRANCH  35  44
ATOM     44  N   UNL     1     -45.236  39.400  28.057  1.00  0.00    -0.326 N 
ATOM     45  C   UNL     1     -44.201  40.160  27.582  1.00  0.00     0.010 A 
ATOM     46  C   UNL     1     -46.426  39.966  27.662  1.00  0.00     0.146 A 
ATOM     47  C   UNL     1     -44.716  41.261  26.914  1.00  0.00    -0.014 A 
ATOM     48  H   UNL     1     -43.171  39.881  27.754  1.00  0.00     0.082 H 
ATOM     49  C   UNL     1     -46.149  41.131  26.960  1.00  0.00     0.065 A 
ATOM     50  N   UNL     1     -47.643  39.445  27.917  1.00  0.00    -0.218 NA
ATOM     51  C   UNL     1     -47.266  41.851  26.496  1.00  0.00     0.136 A 
ATOM     52  C   UNL     1     -48.622  40.229  27.438  1.00  0.00     0.120 A 
ATOM     53  N   UNL     1     -48.503  41.378  26.751  1.00  0.00    -0.219 NA
ATOM     54  H   UNL     1     -49.638  39.893  27.624  1.00  0.00     0.106 H 
BRANCH  47  55
ATOM     55  C   UNL     1     -43.934  42.371  26.272  1.00  0.00    -0.014 C 
ATOM     56  C   UNL     1     -43.952  42.406  24.742  1.00  0.00    -0.046 C 
ATOM     57  C   UNL     1     -42.435  42.316  26.582  1.00  0.00    -0.046 C 
ATOM     58  H   UNL     1     -44.339  43.330  26.622  1.00  0.00     0.035 H 
ATOM     59  C   UNL     1     -42.827  43.376  24.413  1.00  0.00    -0.053 C 
ATOM     60  H   UNL     1     -44.914  42.739  24.341  1.00  0.00     0.027 H 
ATOM     61  H   UNL     1     -43.723  41.426  24.307  1.00  0.00     0.027 H 
ATOM     62  C   UNL     1     -41.749  43.087  25.453  1.00  0.00    -0.053 C 
ATOM     63  H   UNL     1     -42.070  41.282  26.594  1.00  0.00     0.027 H 
ATOM     64  H   UNL     1     -42.202  42.750  27.561  1.00  0.00     0.027 H 
ATOM     65  H   UNL     1     -42.460  43.256  23.390  1.00  0.00     0.027 H 
ATOM     66  H   UNL     1     -43.180  44.409  24.522  1.00  0.00     0.027 H 
ATOM     67  H   UNL     1     -41.301  44.018  25.817  1.00  0.00     0.027 H 
ATOM     68  H   UNL     1     -40.943  42.483  25.021  1.00  0.00     0.027 H 
ENDBRANCH  47  55
BRANCH  51  69
ATOM     69  N   UNL     1     -47.204  43.028  25.762  1.00  0.00    -0.383 N 
ATOM     70  H   UNL     1     -46.441  43.604  26.100  1.00  0.00     0.158 HD
ATOM     71  H   UNL     1     -48.087  43.500  25.645  1.00  0.00     0.158 HD
ENDBRANCH  51  69
ENDBRANCH  35  44
BRANCH  38  72
ATOM     72  O   UNL     1     -46.390  38.379  30.956  1.00  0.00    -0.388 OA
ATOM     73  H   UNL     1     -46.181  39.338  30.914  1.00  0.00     0.211 HD
ENDBRANCH  38  72
ENDBRANCH  28  31
ENDBRANCH   1  28
TORSDOF 11
ENDMDL
MODEL 3
REMARK VINA RESULT:      -9.4      1.558      2.264
REMARK SMILES CCNc1ccc2ccc(CC[C@H]3C[C@@H](n4cc(C5CCCC5)c5c(N)ncnc54)[C@H](O)[C@@H]3O)cc2n1
REMARK SMILES IDX 11 1 10 4 4 5 5 6 37 7 6 8 36 10 7 11 35 13 8 14 9 16 3 19
REMARK SMILES IDX 2 21 1 24 12 28 13 31 14 32 33 33 15 35 31 38 34 42 16 44
REMARK SMILES IDX 17 45 30 46 18 47 24 49 29 50 25 51 28 52 27 53 19 55 20 56
REMARK SMILES IDX 23 57 21 59 22 62 26 69 32 72
REMARK H PARENT 11 2 11 3 5 9 6 12 35 15 8 17 9 18 3 20 2 22 2 23 1 25 1 26
REMARK H PARENT 1 27 12 29 12 30 13 34 14 36 14 37 33 39 15 40 31 41 34 43
REMARK H PARENT 17 48 28 54 19 58 20 60 20 61 23 63 23 64 21 65 21 66 22 67
REMARK H PARENT 22 68 26 70 26 71 32 73
REMARK Flexibility Score: inf
ROOT
ATOM      1  C   UNL     1     -48.302  36.392  27.085  1.00  0.00    -0.027 C 
ATOM      2  H   UNL     1     -48.877  37.076  26.451  1.00  0.00     0.032 H 
ATOM      3  H   UNL     1     -48.773  36.428  28.075  1.00  0.00     0.032 H 
ENDROOT
BRANCH   1   4
ATOM      4  C   UNL     1     -48.412  34.994  26.530  1.00  0.00    -0.046 A 
ATOM      5  C   UNL     1     -46.458  31.455  24.008  1.00  0.00     0.126 A 
ATOM      6  C   UNL     1     -47.584  30.658  24.148  1.00  0.00    -0.019 A 
ATOM      7  N   UNL     1     -46.380  32.692  24.532  1.00  0.00    -0.231 NA
ATOM      8  C   UNL     1     -48.668  31.144  24.872  1.00  0.00    -0.049 A 
ATOM      9  H   UNL     1     -47.633  29.680  23.683  1.00  0.00     0.066 H 
ATOM     10  C   UNL     1     -47.425  33.167  25.234  1.00  0.00     0.073 A 
ATOM     11  C   UNL     1     -48.603  32.422  25.435  1.00  0.00     0.000 A 
ATOM     12  H   UNL     1     -49.556  30.529  24.983  1.00  0.00     0.063 H 
ATOM     13  C   UNL     1     -47.354  34.440  25.787  1.00  0.00    -0.033 A 
ATOM     14  C   UNL     1     -49.670  32.962  26.172  1.00  0.00    -0.053 A 
ATOM     15  H   UNL     1     -46.446  35.017  25.628  1.00  0.00     0.065 H 
ATOM     16  C   UNL     1     -49.575  34.243  26.714  1.00  0.00    -0.058 A 
ATOM     17  H   UNL     1     -50.582  32.389  26.324  1.00  0.00     0.063 H 
ATOM     18  H   UNL     1     -50.413  34.649  27.276  1.00  0.00     0.063 H 
BRANCH   5  19
ATOM     19  N   UNL     1     -45.339  31.039  23.283  1.00  0.00    -0.370 N 
ATOM     20  H   UNL     1     -44.866  30.403  23.928  1.00  0.00     0.162 HD
BRANCH  19  21
ATOM     21  C   UNL     1     -45.660  30.376  22.024  1.00  0.00     0.013 C 
ATOM     22  H   UNL     1     -44.842  29.713  21.717  1.00  0.00     0.049 H 
ATOM     23  H   UNL     1     -46.572  29.777  22.119  1.00  0.00     0.049 H 
BRANCH  21  24
ATOM     24  C   UNL     1     -45.881  31.427  20.946  1.00  0.00    -0.048 C 
ATOM     25  H   UNL     1     -46.946  31.648  20.827  1.00  0.00     0.025 H 
ATOM     26  H   UNL     1     -45.492  31.075  19.985  1.00  0.00     0.025 H 
ATOM     27  H   UNL     1     -45.370  32.363  21.200  1.00  0.00     0.025 H 
ENDBRANCH  21  24
ENDBRANCH  19  21
ENDBRANCH   5  19
ENDBRANCH   1   4
BRANCH   1  28
ATOM     28  C   UNL     1     -46.838  36.834  27.181  1.00  0.00    -0.044 C 
ATOM     29  H   UNL     1     -46.789  37.927  27.263  1.00  0.00     0.027 H 
ATOM     30  H   UNL     1     -46.328  36.578  26.243  1.00  0.00     0.027 H 
BRANCH  28  31
ATOM     31  C   UNL     1     -46.091  36.164  28.347  1.00  0.00    -0.010 C 
ATOM     32  C   UNL     1     -44.641  36.677  28.451  1.00  0.00    -0.024 C 
ATOM     33  C   UNL     1     -46.654  36.507  29.727  1.00  0.00     0.085 C 
ATOM     34  H   UNL     1     -46.072  35.080  28.185  1.00  0.00     0.033 H 
ATOM     35  C   UNL     1     -44.671  37.883  29.412  1.00  0.00     0.064 C 
ATOM     36  H   UNL     1     -44.180  36.861  27.478  1.00  0.00     0.029 H 
ATOM     37  H   UNL     1     -44.035  35.888  28.920  1.00  0.00     0.029 H 
ATOM     38  C   UNL     1     -46.087  37.897  30.027  1.00  0.00     0.101 C 
ATOM     39  H   UNL     1     -47.745  36.484  29.793  1.00  0.00     0.063 H 
ATOM     40  H   UNL     1     -43.911  37.713  30.187  1.00  0.00     0.056 H 
ATOM     41  H   UNL     1     -46.720  38.666  29.569  1.00  0.00     0.065 H 
BRANCH  33  42
ATOM     42  O   UNL     1     -46.148  35.572  30.684  1.00  0.00    -0.390 OA
ATOM     43  H   UNL     1     -46.941  35.093  31.008  1.00  0.00     0.211 HD
ENDBRANCH  33  42
BRANCH  35  44
ATOM     44  N   UNL     1     -44.352  39.193  28.853  1.00  0.00    -0.326 N 
ATOM     45  C   UNL     1     -45.045  39.904  27.911  1.00  0.00     0.010 A 
ATOM     46  C   UNL     1     -43.273  39.937  29.273  1.00  0.00     0.146 A 
ATOM     47  C   UNL     1     -44.387  41.102  27.671  1.00  0.00    -0.014 A 
ATOM     48  H   UNL     1     -45.950  39.516  27.464  1.00  0.00     0.082 H 
ATOM     49  C   UNL     1     -43.250  41.124  28.554  1.00  0.00     0.065 A 
ATOM     50  N   UNL     1     -42.408  39.555  30.233  1.00  0.00    -0.218 NA
ATOM     51  C   UNL     1     -42.188  42.001  28.848  1.00  0.00     0.136 A 
ATOM     52  C   UNL     1     -41.437  40.466  30.409  1.00  0.00     0.120 A 
ATOM     53  N   UNL     1     -41.286  41.647  29.785  1.00  0.00    -0.219 NA
ATOM     54  H   UNL     1     -40.681  40.223  31.150  1.00  0.00     0.106 H 
BRANCH  47  55
ATOM     55  C   UNL     1     -44.780  42.164  26.685  1.00  0.00    -0.014 C 
ATOM     56  C   UNL     1     -46.174  42.024  26.069  1.00  0.00    -0.046 C 
ATOM     57  C   UNL     1     -43.877  42.207  25.448  1.00  0.00    -0.046 C 
ATOM     58  H   UNL     1     -44.745  43.138  27.190  1.00  0.00     0.035 H 
ATOM     59  C   UNL     1     -46.126  42.997  24.901  1.00  0.00    -0.053 C 
ATOM     60  H   UNL     1     -46.971  42.269  26.777  1.00  0.00     0.027 H 
ATOM     61  H   UNL     1     -46.355  41.012  25.689  1.00  0.00     0.027 H 
ATOM     62  C   UNL     1     -44.709  42.874  24.350  1.00  0.00    -0.053 C 
ATOM     63  H   UNL     1     -43.592  41.198  25.129  1.00  0.00     0.027 H 
ATOM     64  H   UNL     1     -42.949  42.758  25.636  1.00  0.00     0.027 H 
ATOM     65  H   UNL     1     -46.885  42.778  24.145  1.00  0.00     0.027 H 
ATOM     66  H   UNL     1     -46.297  44.020  25.258  1.00  0.00     0.027 H 
ATOM     67  H   UNL     1     -44.308  43.858  24.085  1.00  0.00     0.027 H 
ATOM     68  H   UNL     1     -44.695  42.259  23.443  1.00  0.00     0.027 H 
ENDBRANCH  47  55
BRANCH  51  69
ATOM     69  N   UNL     1     -41.996  43.242  28.255  1.00  0.00    -0.383 N 
ATOM     70  H   UNL     1     -41.016  43.366  28.028  1.00  0.00     0.158 HD
ATOM     71  H   UNL     1     -42.432  44.012  28.738  1.00  0.00     0.158 HD
ENDBRANCH  51  69
ENDBRANCH  35  44
BRANCH  38  72
ATOM     72  O   UNL     1     -46.066  38.121  31.440  1.00  0.00    -0.388 OA
ATOM     73  H   UNL     1     -45.118  38.177  31.690  1.00  0.00     0.211 HD
ENDBRANCH  38  72
ENDBRANCH  28  31
ENDBRANCH   1  28
TORSDOF 11
ENDMDL
MODEL 4
REMARK VINA RESULT:      -9.2      2.005      3.248
REMARK SMILES CCNc1ccc2ccc(CC[C@H]3C[C@@H](n4cc(C5CCCC5)c5c(N)ncnc54)[C@H](O)[C@@H]3O)cc2n1
REMARK SMILES IDX 11 1 10 4 4 5 5 6 37 7 6 8 36 10 7 11 35 13 8 14 9 16 3 19
REMARK SMILES IDX 2 21 1 24 12 28 13 31 14 32 33 33 15 35 31 38 34 42 16 44
REMARK SMILES IDX 17 45 30 46 18 47 24 49 29 50 25 51 28 52 27 53 19 55 20 56
REMARK SMILES IDX 23 57 21 59 22 62 26 69 32 72
REMARK H PARENT 11 2 11 3 5 9 6 12 35 15 8 17 9 18 3 20 2 22 2 23 1 25 1 26
REMARK H PARENT 1 27 12 29 12 30 13 34 14 36 14 37 33 39 15 40 31 41 34 43
REMARK H PARENT 17 48 28 54 19 58 20 60 20 61 23 63 23 64 21 65 21 66 22 67
REMARK H PARENT 22 68 26 70 26 71 32 73
REMARK Flexibility Score: inf
ROOT
ATOM      1  C   UNL     1     -48.160  35.817  27.085  1.00  0.00    -0.027 C 
ATOM      2  H   UNL     1     -48.912  36.504  26.683  1.00  0.00     0.032 H 
ATOM      3  H   UNL     1     -48.382  35.716  28.155  1.00  0.00     0.032 H 
ENDROOT
BRANCH   1   4
ATOM      4  C   UNL     1     -48.310  34.473  26.415  1.00  0.00    -0.046 A 
ATOM      5  C   UNL     1     -46.406  31.043  23.714  1.00  0.00     0.126 A 
ATOM      6  C   UNL     1     -47.575  30.297  23.736  1.00  0.00    -0.019 A 
ATOM      7  N   UNL     1     -46.293  32.229  24.338  1.00  0.00    -0.231 NA
ATOM      8  C   UNL     1     -48.669  30.783  24.445  1.00  0.00    -0.049 A 
ATOM      9  H   UNL     1     -47.648  29.362  23.193  1.00  0.00     0.066 H 
ATOM     10  C   UNL     1     -47.348  32.703  25.026  1.00  0.00     0.073 A 
ATOM     11  C   UNL     1     -48.570  32.008  25.110  1.00  0.00     0.000 A 
ATOM     12  H   UNL     1     -49.591  30.208  24.465  1.00  0.00     0.063 H 
ATOM     13  C   UNL     1     -47.244  33.923  25.681  1.00  0.00    -0.033 A 
ATOM     14  C   UNL     1     -49.646  32.545  25.838  1.00  0.00    -0.053 A 
ATOM     15  H   UNL     1     -46.302  34.462  25.612  1.00  0.00     0.065 H 
ATOM     16  C   UNL     1     -49.516  33.773  26.484  1.00  0.00    -0.058 A 
ATOM     17  H   UNL     1     -50.591  32.010  25.901  1.00  0.00     0.063 H 
ATOM     18  H   UNL     1     -50.360  34.177  27.037  1.00  0.00     0.063 H 
BRANCH   5  19
ATOM     19  N   UNL     1     -45.272  30.625  23.011  1.00  0.00    -0.370 N 
ATOM     20  H   UNL     1     -44.930  29.839  23.565  1.00  0.00     0.162 HD
BRANCH  19  21
ATOM     21  C   UNL     1     -45.542  30.226  21.633  1.00  0.00     0.013 C 
ATOM     22  H   UNL     1     -44.686  29.682  21.215  1.00  0.00     0.049 H 
ATOM     23  H   UNL     1     -46.422  29.577  21.580  1.00  0.00     0.049 H 
BRANCH  21  24
ATOM     24  C   UNL     1     -45.803  31.467  20.794  1.00  0.00    -0.048 C 
ATOM     25  H   UNL     1     -46.766  31.396  20.279  1.00  0.00     0.025 H 
ATOM     26  H   UNL     1     -45.018  31.590  20.040  1.00  0.00     0.025 H 
ATOM     27  H   UNL     1     -45.822  32.367  21.418  1.00  0.00     0.025 H 
ENDBRANCH  21  24
ENDBRANCH  19  21
ENDBRANCH   5  19
ENDBRANCH   1   4
BRANCH   1  28
ATOM     28  C   UNL     1     -46.747  36.376  26.890  1.00  0.00    -0.044 C 
ATOM     29  H   UNL     1     -46.807  37.438  26.621  1.00  0.00     0.027 H 
ATOM     30  H   UNL     1     -46.281  35.873  26.033  1.00  0.00     0.027 H 
BRANCH  28  31
ATOM     31  C   UNL     1     -45.852  36.174  28.125  1.00  0.00    -0.010 C 
ATOM     32  C   UNL     1     -44.624  37.104  28.084  1.00  0.00    -0.024 C 
ATOM     33  C   UNL     1     -46.515  36.572  29.445  1.00  0.00     0.085 C 
ATOM     34  H   UNL     1     -45.507  35.134  28.152  1.00  0.00     0.033 H 
ATOM     35  C   UNL     1     -45.028  38.397  28.824  1.00  0.00     0.064 C 
ATOM     36  H   UNL     1     -44.224  37.243  27.078  1.00  0.00     0.029 H 
ATOM     37  H   UNL     1     -43.818  36.626  28.659  1.00  0.00     0.029 H 
ATOM     38  C   UNL     1     -46.394  38.097  29.479  1.00  0.00     0.101 C 
ATOM     39  H   UNL     1     -47.549  36.237  29.555  1.00  0.00     0.063 H 
ATOM     40  H   UNL     1     -44.265  38.599  29.587  1.00  0.00     0.056 H 
ATOM     41  H   UNL     1     -47.221  38.550  28.920  1.00  0.00     0.065 H 
BRANCH  33  42
ATOM     42  O   UNL     1     -45.768  36.013  30.530  1.00  0.00    -0.390 OA
ATOM     43  H   UNL     1     -46.401  35.981  31.279  1.00  0.00     0.211 HD
ENDBRANCH  33  42
BRANCH  35  44
ATOM     44  N   UNL     1     -45.107  39.623  28.036  1.00  0.00    -0.326 N 
ATOM     45  C   UNL     1     -44.079  40.380  27.542  1.00  0.00     0.010 A 
ATOM     46  C   UNL     1     -46.303  40.169  27.629  1.00  0.00     0.146 A 
ATOM     47  C   UNL     1     -44.605  41.461  26.849  1.00  0.00    -0.014 A 
ATOM     48  H   UNL     1     -43.046  40.114  27.718  1.00  0.00     0.082 H 
ATOM     49  C   UNL     1     -46.037  41.320  26.901  1.00  0.00     0.065 A 
ATOM     50  N   UNL     1     -47.514  39.643  27.898  1.00  0.00    -0.218 NA
ATOM     51  C   UNL     1     -47.161  42.019  26.422  1.00  0.00     0.136 A 
ATOM     52  C   UNL     1     -48.501  40.407  27.404  1.00  0.00     0.120 A 
ATOM     53  N   UNL     1     -48.393  41.541  26.690  1.00  0.00    -0.219 NA
ATOM     54  H   UNL     1     -49.514  40.067  27.598  1.00  0.00     0.106 H 
BRANCH  47  55
ATOM     55  C   UNL     1     -43.834  42.563  26.180  1.00  0.00    -0.014 C 
ATOM     56  C   UNL     1     -43.871  42.575  24.650  1.00  0.00    -0.046 C 
ATOM     57  C   UNL     1     -42.331  42.516  26.473  1.00  0.00    -0.046 C 
ATOM     58  H   UNL     1     -44.237  43.526  26.521  1.00  0.00     0.035 H 
ATOM     59  C   UNL     1     -42.753  43.542  24.293  1.00  0.00    -0.053 C 
ATOM     60  H   UNL     1     -44.839  42.899  24.257  1.00  0.00     0.027 H 
ATOM     61  H   UNL     1     -43.645  41.588  24.227  1.00  0.00     0.027 H 
ATOM     62  C   UNL     1     -41.661  43.272  25.323  1.00  0.00    -0.053 C 
ATOM     63  H   UNL     1     -41.963  41.484  26.495  1.00  0.00     0.027 H 
ATOM     64  H   UNL     1     -42.087  42.965  27.442  1.00  0.00     0.027 H 
ATOM     65  H   UNL     1     -42.398  43.407  23.267  1.00  0.00     0.027 H 
ATOM     66  H   UNL     1     -43.107  44.576  24.390  1.00  0.00     0.027 H 
ATOM     67  H   UNL     1     -41.211  44.209  25.667  1.00  0.00     0.027 H 
ATOM     68  H   UNL     1     -40.859  42.662  24.890  1.00  0.00     0.027 H 
ENDBRANCH  47  55
BRANCH  51  69
ATOM     69  N   UNL     1     -47.110  43.179  25.661  1.00  0.00    -0.383 N 
ATOM     70  H   UNL     1     -47.507  43.006  24.744  1.00  0.00     0.158 HD
ATOM     71  H   UNL     1     -46.218  43.650  25.668  1.00  0.00     0.158 HD
ENDBRANCH  51  69
ENDBRANCH  35  44
BRANCH  38  72
ATOM     72  O   UNL     1     -46.464  38.562  30.830  1.00  0.00    -0.388 OA
ATOM     73  H   UNL     1     -47.311  38.218  31.190  1.00  0.00     0.211 HD
ENDBRANCH  38  72
ENDBRANCH  28  31
ENDBRANCH   1  28
TORSDOF 11
ENDMDL
MODEL 5
REMARK VINA RESULT:      -9.1      2.132      2.801
REMARK SMILES CCNc1ccc2ccc(CC[C@H]3C[C@@H](n4cc(C5CCCC5)c5c(N)ncnc54)[C@H](O)[C@@H]3O)cc2n1
REMARK SMILES IDX 11 1 10 4 4 5 5 6 37 7 6 8 36 10 7 11 35 13 8 14 9 16 3 19
REMARK SMILES IDX 2 21 1 24 12 28 13 31 14 32 33 33 15 35 31 38 34 42 16 44
REMARK SMILES IDX 17 45 30 46 18 47 24 49 29 50 25 51 28 52 27 53 19 55 20 56
REMARK SMILES IDX 23 57 21 59 22 62 26 69 32 72
REMARK H PARENT 11 2 11 3 5 9 6 12 35 15 8 17 9 18 3 20 2 22 2 23 1 25 1 26
REMARK H PARENT 1 27 12 29 12 30 13 34 14 36 14 37 33 39 15 40 31 41 34 43
REMARK H PARENT 17 48 28 54 19 58 20 60 20 61 23 63 23 64 21 65 21 66 22 67
REMARK H PARENT 22 68 26 70 26 71 32 73
REMARK Flexibility Score: inf
ROOT
ATOM      1  C   UNL     1     -48.410  35.009  27.036  1.00  0.00    -0.027 C 
ATOM      2  H   UNL     1     -49.465  35.212  26.822  1.00  0.00     0.032 H 
ATOM      3  H   UNL     1     -48.371  34.664  28.077  1.00  0.00     0.032 H 
ENDROOT
BRANCH   1   4
ATOM      4  C   UNL     1     -47.925  33.907  26.127  1.00  0.00    -0.046 A 
ATOM      5  C   UNL     1     -48.562  29.541  24.332  1.00  0.00     0.126 A 
ATOM      6  C   UNL     1     -47.378  29.603  23.611  1.00  0.00    -0.019 A 
ATOM      7  N   UNL     1     -48.981  30.548  25.119  1.00  0.00    -0.231 NA
ATOM      8  C   UNL     1     -46.602  30.755  23.689  1.00  0.00    -0.049 A 
ATOM      9  H   UNL     1     -47.047  28.761  23.013  1.00  0.00     0.066 H 
ATOM     10  C   UNL     1     -48.235  31.665  25.197  1.00  0.00     0.073 A 
ATOM     11  C   UNL     1     -47.025  31.817  24.492  1.00  0.00     0.000 A 
ATOM     12  H   UNL     1     -45.672  30.811  23.131  1.00  0.00     0.063 H 
ATOM     13  C   UNL     1     -48.659  32.715  26.001  1.00  0.00    -0.033 A 
ATOM     14  C   UNL     1     -46.278  33.001  24.608  1.00  0.00    -0.053 A 
ATOM     15  H   UNL     1     -49.591  32.595  26.550  1.00  0.00     0.065 H 
ATOM     16  C   UNL     1     -46.725  34.040  25.424  1.00  0.00    -0.058 A 
ATOM     17  H   UNL     1     -45.342  33.119  24.067  1.00  0.00     0.063 H 
ATOM     18  H   UNL     1     -46.131  34.946  25.508  1.00  0.00     0.063 H 
BRANCH   5  19
ATOM     19  N   UNL     1     -49.384  28.411  24.314  1.00  0.00    -0.370 N 
ATOM     20  H   UNL     1     -48.947  27.816  23.608  1.00  0.00     0.162 HD
BRANCH  19  21
ATOM     21  C   UNL     1     -49.481  27.727  25.599  1.00  0.00     0.013 C 
ATOM     22  H   UNL     1     -49.062  28.349  26.400  1.00  0.00     0.049 H 
ATOM     23  H   UNL     1     -50.525  27.504  25.844  1.00  0.00     0.049 H 
BRANCH  21  24
ATOM     24  C   UNL     1     -48.709  26.418  25.529  1.00  0.00    -0.048 C 
ATOM     25  H   UNL     1     -49.095  25.695  26.254  1.00  0.00     0.025 H 
ATOM     26  H   UNL     1     -47.649  26.589  25.744  1.00  0.00     0.025 H 
ATOM     27  H   UNL     1     -48.788  25.969  24.533  1.00  0.00     0.025 H 
ENDBRANCH  21  24
ENDBRANCH  19  21
ENDBRANCH   5  19
ENDBRANCH   1   4
BRANCH   1  28
ATOM     28  C   UNL     1     -47.565  36.276  26.867  1.00  0.00    -0.044 C 
ATOM     29  H   UNL     1     -48.183  37.160  27.070  1.00  0.00     0.027 H 
ATOM     30  H   UNL     1     -47.254  36.359  25.818  1.00  0.00     0.027 H 
BRANCH  28  31
ATOM     31  C   UNL     1     -46.308  36.274  27.754  1.00  0.00    -0.010 C 
ATOM     32  C   UNL     1     -45.363  37.435  27.389  1.00  0.00    -0.024 C 
ATOM     33  C   UNL     1     -46.589  36.539  29.234  1.00  0.00     0.085 C 
ATOM     34  H   UNL     1     -45.773  35.326  27.615  1.00  0.00     0.033 H 
ATOM     35  C   UNL     1     -45.763  38.624  28.288  1.00  0.00     0.064 C 
ATOM     36  H   UNL     1     -45.333  37.644  26.318  1.00  0.00     0.029 H 
ATOM     37  H   UNL     1     -44.340  37.138  27.661  1.00  0.00     0.029 H 
ATOM     38  C   UNL     1     -46.767  38.057  29.314  1.00  0.00     0.101 C 
ATOM     39  H   UNL     1     -47.450  36.000  29.638  1.00  0.00     0.063 H 
ATOM     40  H   UNL     1     -44.855  38.986  28.789  1.00  0.00     0.056 H 
ATOM     41  H   UNL     1     -47.800  38.326  29.062  1.00  0.00     0.065 H 
BRANCH  33  42
ATOM     42  O   UNL     1     -45.446  36.155  30.003  1.00  0.00    -0.390 OA
ATOM     43  H   UNL     1     -44.733  36.762  29.711  1.00  0.00     0.211 HD
ENDBRANCH  33  42
BRANCH  35  44
ATOM     44  N   UNL     1     -46.325  39.801  27.631  1.00  0.00    -0.326 N 
ATOM     45  C   UNL     1     -47.626  40.226  27.624  1.00  0.00     0.010 A 
ATOM     46  C   UNL     1     -45.552  40.704  26.939  1.00  0.00     0.146 A 
ATOM     47  C   UNL     1     -47.717  41.392  26.876  1.00  0.00    -0.014 A 
ATOM     48  H   UNL     1     -48.403  39.677  28.136  1.00  0.00     0.082 H 
ATOM     49  C   UNL     1     -46.379  41.702  26.442  1.00  0.00     0.065 A 
ATOM     50  N   UNL     1     -44.215  40.616  26.796  1.00  0.00    -0.218 NA
ATOM     51  C   UNL     1     -45.747  42.706  25.685  1.00  0.00     0.136 A 
ATOM     52  C   UNL     1     -43.735  41.619  26.045  1.00  0.00     0.120 A 
ATOM     53  N   UNL     1     -44.413  42.643  25.497  1.00  0.00    -0.219 NA
ATOM     54  H   UNL     1     -42.665  41.609  25.859  1.00  0.00     0.106 H 
BRANCH  47  55
ATOM     55  C   UNL     1     -48.963  42.175  26.576  1.00  0.00    -0.014 C 
ATOM     56  C   UNL     1     -49.121  43.499  27.328  1.00  0.00    -0.046 C 
ATOM     57  C   UNL     1     -50.250  41.431  26.947  1.00  0.00    -0.046 C 
ATOM     58  H   UNL     1     -48.978  42.408  25.504  1.00  0.00     0.035 H 
ATOM     59  C   UNL     1     -50.582  43.850  27.090  1.00  0.00    -0.053 C 
ATOM     60  H   UNL     1     -48.444  44.274  26.957  1.00  0.00     0.027 H 
ATOM     61  H   UNL     1     -48.948  43.382  28.404  1.00  0.00     0.027 H 
ATOM     62  C   UNL     1     -51.316  42.513  27.136  1.00  0.00    -0.053 C 
ATOM     63  H   UNL     1     -50.130  40.869  27.881  1.00  0.00     0.027 H 
ATOM     64  H   UNL     1     -50.545  40.711  26.176  1.00  0.00     0.027 H 
ATOM     65  H   UNL     1     -50.965  44.559  27.829  1.00  0.00     0.027 H 
ATOM     66  H   UNL     1     -50.701  44.304  26.098  1.00  0.00     0.027 H 
ATOM     67  H   UNL     1     -52.081  42.463  26.354  1.00  0.00     0.027 H 
ATOM     68  H   UNL     1     -51.821  42.379  28.098  1.00  0.00     0.027 H 
ENDBRANCH  47  55
BRANCH  51  69
ATOM     69  N   UNL     1     -46.391  43.797  25.118  1.00  0.00    -0.383 N 
ATOM     70  H   UNL     1     -45.812  44.196  24.386  1.00  0.00     0.158 HD
ATOM     71  H   UNL     1     -46.770  44.456  25.780  1.00  0.00     0.158 HD
ENDBRANCH  51  69
ENDBRANCH  35  44
BRANCH  38  72
ATOM     72  O   UNL     1     -46.502  38.510  30.645  1.00  0.00    -0.388 OA
ATOM     73  H   UNL     1     -47.274  38.229  31.184  1.00  0.00     0.211 HD
ENDBRANCH  38  72
ENDBRANCH  28  31
ENDBRANCH   1  28
TORSDOF 11
ENDMDL
MODEL 6
REMARK VINA RESULT:      -9.0      1.924      2.555
REMARK SMILES CCNc1ccc2ccc(CC[C@H]3C[C@@H](n4cc(C5CCCC5)c5c(N)ncnc54)[C@H](O)[C@@H]3O)cc2n1
REMARK SMILES IDX 11 1 10 4 4 5 5 6 37 7 6 8 36 10 7 11 35 13 8 14 9 16 3 19
REMARK SMILES IDX 2 21 1 24 12 28 13 31 14 32 33 33 15 35 31 38 34 42 16 44
REMARK SMILES IDX 17 45 30 46 18 47 24 49 29 50 25 51 28 52 27 53 19 55 20 56
REMARK SMILES IDX 23 57 21 59 22 62 26 69 32 72
REMARK H PARENT 11 2 11 3 5 9 6 12 35 15 8 17 9 18 3 20 2 22 2 23 1 25 1 26
REMARK H PARENT 1 27 12 29 12 30 13 34 14 36 14 37 33 39 15 40 31 41 34 43
REMARK H PARENT 17 48 28 54 19 58 20 60 20 61 23 63 23 64 21 65 21 66 22 67
REMARK H PARENT 22 68 26 70 26 71 32 73
REMARK Flexibility Score: inf
ROOT
ATOM      1  C   UNL     1     -45.752  34.662  26.511  1.00  0.00    -0.027 C 
ATOM      2  H   UNL     1     -45.418  34.281  27.483  1.00  0.00     0.032 H 
ATOM      3  H   UNL     1     -44.872  34.637  25.856  1.00  0.00     0.032 H 
ENDROOT
BRANCH   1   4
ATOM      4  C   UNL     1     -46.813  33.744  25.958  1.00  0.00    -0.046 A 
ATOM      5  C   UNL     1     -48.134  30.591  22.640  1.00  0.00     0.126 A 
ATOM      6  C   UNL     1     -49.411  30.483  23.170  1.00  0.00    -0.019 A 
ATOM      7  N   UNL     1     -47.200  31.403  23.167  1.00  0.00    -0.231 NA
ATOM      8  C   UNL     1     -49.737  31.228  24.299  1.00  0.00    -0.049 A 
ATOM      9  H   UNL     1     -50.154  29.848  22.702  1.00  0.00     0.066 H 
ATOM     10  C   UNL     1     -47.509  32.125  24.259  1.00  0.00     0.073 A 
ATOM     11  C   UNL     1     -48.778  32.069  24.869  1.00  0.00     0.000 A 
ATOM     12  H   UNL     1     -50.736  31.153  24.718  1.00  0.00     0.063 H 
ATOM     13  C   UNL     1     -46.552  32.963  24.818  1.00  0.00    -0.033 A 
ATOM     14  C   UNL     1     -49.055  32.845  26.006  1.00  0.00    -0.053 A 
ATOM     15  H   UNL     1     -45.574  33.010  24.345  1.00  0.00     0.065 H 
ATOM     16  C   UNL     1     -48.078  33.680  26.546  1.00  0.00    -0.058 A 
ATOM     17  H   UNL     1     -50.036  32.806  26.476  1.00  0.00     0.063 H 
ATOM     18  H   UNL     1     -48.312  34.279  27.423  1.00  0.00     0.063 H 
BRANCH   5  19
ATOM     19  N   UNL     1     -47.740  29.885  21.500  1.00  0.00    -0.370 N 
ATOM     20  H   UNL     1     -47.551  28.948  21.859  1.00  0.00     0.162 HD
BRANCH  19  21
ATOM     21  C   UNL     1     -48.747  29.854  20.444  1.00  0.00     0.013 C 
ATOM     22  H   UNL     1     -48.651  28.939  19.846  1.00  0.00     0.049 H 
ATOM     23  H   UNL     1     -49.757  29.886  20.867  1.00  0.00     0.049 H 
BRANCH  21  24
ATOM     24  C   UNL     1     -48.562  31.063  19.540  1.00  0.00    -0.048 C 
ATOM     25  H   UNL     1     -49.219  31.884  19.843  1.00  0.00     0.025 H 
ATOM     26  H   UNL     1     -48.793  30.802  18.502  1.00  0.00     0.025 H 
ATOM     27  H   UNL     1     -47.530  31.428  19.579  1.00  0.00     0.025 H 
ENDBRANCH  21  24
ENDBRANCH  19  21
ENDBRANCH   5  19
ENDBRANCH   1   4
BRANCH   1  28
ATOM     28  C   UNL     1     -46.275  36.097  26.637  1.00  0.00    -0.044 C 
ATOM     29  H   UNL     1     -46.856  36.356  25.742  1.00  0.00     0.027 H 
ATOM     30  H   UNL     1     -45.421  36.786  26.653  1.00  0.00     0.027 H 
BRANCH  28  31
ATOM     31  C   UNL     1     -47.108  36.316  27.911  1.00  0.00    -0.010 C 
ATOM     32  C   UNL     1     -46.312  37.101  28.972  1.00  0.00    -0.024 C 
ATOM     33  C   UNL     1     -48.337  37.203  27.708  1.00  0.00     0.085 C 
ATOM     34  H   UNL     1     -47.387  35.341  28.329  1.00  0.00     0.033 H 
ATOM     35  C   UNL     1     -46.626  38.594  28.739  1.00  0.00     0.064 C 
ATOM     36  H   UNL     1     -45.252  36.842  28.993  1.00  0.00     0.029 H 
ATOM     37  H   UNL     1     -46.703  36.827  29.962  1.00  0.00     0.029 H 
ATOM     38  C   UNL     1     -47.775  38.626  27.708  1.00  0.00     0.101 C 
ATOM     39  H   UNL     1     -48.912  36.986  26.804  1.00  0.00     0.063 H 
ATOM     40  H   UNL     1     -46.950  39.022  29.697  1.00  0.00     0.056 H 
ATOM     41  H   UNL     1     -47.414  38.886  26.706  1.00  0.00     0.065 H 
BRANCH  33  42
ATOM     42  O   UNL     1     -49.220  37.042  28.823  1.00  0.00    -0.390 OA
ATOM     43  H   UNL     1     -48.795  36.356  29.381  1.00  0.00     0.211 HD
ENDBRANCH  33  42
BRANCH  35  44
ATOM     44  N   UNL     1     -45.529  39.449  28.296  1.00  0.00    -0.326 N 
ATOM     45  C   UNL     1     -45.480  40.264  27.198  1.00  0.00     0.010 A 
ATOM     46  C   UNL     1     -44.358  39.580  29.006  1.00  0.00     0.146 A 
ATOM     47  C   UNL     1     -44.245  40.896  27.157  1.00  0.00    -0.014 A 
ATOM     48  H   UNL     1     -46.312  40.338  26.512  1.00  0.00     0.082 H 
ATOM     49  C   UNL     1     -43.527  40.460  28.326  1.00  0.00     0.065 A 
ATOM     50  N   UNL     1     -44.096  38.955  30.171  1.00  0.00    -0.218 NA
ATOM     51  C   UNL     1     -42.268  40.694  28.911  1.00  0.00     0.136 A 
ATOM     52  C   UNL     1     -42.863  39.247  30.617  1.00  0.00     0.120 A 
ATOM     53  N   UNL     1     -41.955  40.070  30.064  1.00  0.00    -0.219 NA
ATOM     54  H   UNL     1     -42.561  38.763  31.541  1.00  0.00     0.106 H 
BRANCH  47  55
ATOM     55  C   UNL     1     -43.754  41.845  26.102  1.00  0.00    -0.014 C 
ATOM     56  C   UNL     1     -43.657  43.316  26.515  1.00  0.00    -0.046 C 
ATOM     57  C   UNL     1     -44.664  41.909  24.872  1.00  0.00    -0.046 C 
ATOM     58  H   UNL     1     -42.749  41.530  25.791  1.00  0.00     0.035 H 
ATOM     59  C   UNL     1     -43.488  44.030  25.184  1.00  0.00    -0.053 C 
ATOM     60  H   UNL     1     -42.821  43.506  27.195  1.00  0.00     0.027 H 
ATOM     61  H   UNL     1     -44.576  43.667  27.000  1.00  0.00     0.027 H 
ATOM     62  C   UNL     1     -44.378  43.260  24.213  1.00  0.00    -0.053 C 
ATOM     63  H   UNL     1     -45.722  41.857  25.157  1.00  0.00     0.027 H 
ATOM     64  H   UNL     1     -44.478  41.080  24.180  1.00  0.00     0.027 H 
ATOM     65  H   UNL     1     -43.757  45.089  25.242  1.00  0.00     0.027 H 
ATOM     66  H   UNL     1     -42.443  43.969  24.856  1.00  0.00     0.027 H 
ATOM     67  H   UNL     1     -43.882  43.138  23.244  1.00  0.00     0.027 H 
ATOM     68  H   UNL     1     -45.317  43.797  24.036  1.00  0.00     0.027 H 
ENDBRANCH  47  55
BRANCH  51  69
ATOM     69  N   UNL     1     -41.302  41.550  28.400  1.00  0.00    -0.383 N 
ATOM     70  H   UNL     1     -41.046  42.237  29.100  1.00  0.00     0.158 HD
ATOM     71  H   UNL     1     -41.506  41.918  27.483  1.00  0.00     0.158 HD
ENDBRANCH  51  69
ENDBRANCH  35  44
BRANCH  38  72
ATOM     72  O   UNL     1     -48.802  39.557  28.064  1.00  0.00    -0.388 OA
ATOM     73  H   UNL     1     -48.344  40.407  28.244  1.00  0.00     0.211 HD
ENDBRANCH  38  72
ENDBRANCH  28  31
ENDBRANCH   1  28
TORSDOF 11
ENDMDL
MODEL 7
REMARK VINA RESULT:      -9.0      3.387      6.114
REMARK SMILES CCNc1ccc2ccc(CC[C@H]3C[C@@H](n4cc(C5CCCC5)c5c(N)ncnc54)[C@H](O)[C@@H]3O)cc2n1
REMARK SMILES IDX 11 1 10 4 4 5 5 6 37 7 6 8 36 10 7 11 35 13 8 14 9 16 3 19
REMARK SMILES IDX 2 21 1 24 12 28 13 31 14 32 33 33 15 35 31 38 34 42 16 44
REMARK SMILES IDX 17 45 30 46 18 47 24 49 29 50 25 51 28 52 27 53 19 55 20 56
REMARK SMILES IDX 23 57 21 59 22 62 26 69 32 72
REMARK H PARENT 11 2 11 3 5 9 6 12 35 15 8 17 9 18 3 20 2 22 2 23 1 25 1 26
REMARK H PARENT 1 27 12 29 12 30 13 34 14 36 14 37 33 39 15 40 31 41 34 43
REMARK H PARENT 17 48 28 54 19 58 20 60 20 61 23 63 23 64 21 65 21 66 22 67
REMARK H PARENT 22 68 26 70 26 71 32 73
REMARK Flexibility Score: inf
ROOT
ATOM      1  C   UNL     1     -44.013  39.091  29.212  1.00  0.00    -0.027 C 
ATOM      2  H   UNL     1     -44.103  39.118  30.304  1.00  0.00     0.032 H 
ATOM      3  H   UNL     1     -43.057  38.597  28.998  1.00  0.00     0.032 H 
ENDROOT
BRANCH   1   4
ATOM      4  C   UNL     1     -45.141  38.266  28.644  1.00  0.00    -0.046 A 
ATOM      5  C   UNL     1     -46.662  34.084  26.942  1.00  0.00     0.126 A 
ATOM      6  C   UNL     1     -47.926  34.589  26.674  1.00  0.00    -0.019 A 
ATOM      7  N   UNL     1     -45.680  34.839  27.469  1.00  0.00    -0.231 NA
ATOM      8  C   UNL     1     -48.197  35.920  26.975  1.00  0.00    -0.049 A 
ATOM      9  H   UNL     1     -48.685  33.967  26.214  1.00  0.00     0.066 H 
ATOM     10  C   UNL     1     -45.938  36.126  27.764  1.00  0.00     0.073 A 
ATOM     11  C   UNL     1     -47.195  36.717  27.534  1.00  0.00     0.000 A 
ATOM     12  H   UNL     1     -49.183  36.325  26.764  1.00  0.00     0.063 H 
ATOM     13  C   UNL     1     -44.936  36.914  28.315  1.00  0.00    -0.033 A 
ATOM     14  C   UNL     1     -47.416  38.067  27.854  1.00  0.00    -0.053 A 
ATOM     15  H   UNL     1     -43.964  36.459  28.489  1.00  0.00     0.065 H 
ATOM     16  C   UNL     1     -46.392  38.838  28.404  1.00  0.00    -0.058 A 
ATOM     17  H   UNL     1     -48.385  38.526  27.674  1.00  0.00     0.063 H 
ATOM     18  H   UNL     1     -46.578  39.883  28.640  1.00  0.00     0.063 H 
BRANCH   5  19
ATOM     19  N   UNL     1     -46.313  32.763  26.653  1.00  0.00    -0.370 N 
ATOM     20  H   UNL     1     -46.379  32.299  27.560  1.00  0.00     0.162 HD
BRANCH  19  21
ATOM     21  C   UNL     1     -47.177  32.123  25.667  1.00  0.00     0.013 C 
ATOM     22  H   UNL     1     -47.478  31.124  26.007  1.00  0.00     0.049 H 
ATOM     23  H   UNL     1     -48.082  32.717  25.496  1.00  0.00     0.049 H 
BRANCH  21  24
ATOM     24  C   UNL     1     -46.426  31.995  24.350  1.00  0.00    -0.048 C 
ATOM     25  H   UNL     1     -45.464  32.515  24.395  1.00  0.00     0.025 H 
ATOM     26  H   UNL     1     -47.013  32.428  23.533  1.00  0.00     0.025 H 
ATOM     27  H   UNL     1     -46.230  30.945  24.110  1.00  0.00     0.025 H 
ENDBRANCH  21  24
ENDBRANCH  19  21
ENDBRANCH   5  19
ENDBRANCH   1   4
BRANCH   1  28
ATOM     28  C   UNL     1     -44.018  40.508  28.629  1.00  0.00    -0.044 C 
ATOM     29  H   UNL     1     -43.791  41.232  29.421  1.00  0.00     0.027 H 
ATOM     30  H   UNL     1     -45.032  40.746  28.283  1.00  0.00     0.027 H 
BRANCH  28  31
ATOM     31  C   UNL     1     -43.045  40.667  27.448  1.00  0.00    -0.010 C 
ATOM     32  C   UNL     1     -43.800  40.736  26.106  1.00  0.00    -0.024 C 
ATOM     33  C   UNL     1     -42.271  41.986  27.451  1.00  0.00     0.085 C 
ATOM     34  H   UNL     1     -42.364  39.807  27.426  1.00  0.00     0.033 H 
ATOM     35  C   UNL     1     -44.074  42.230  25.834  1.00  0.00     0.064 C 
ATOM     36  H   UNL     1     -44.674  40.083  26.071  1.00  0.00     0.029 H 
ATOM     37  H   UNL     1     -43.126  40.370  25.319  1.00  0.00     0.029 H 
ATOM     38  C   UNL     1     -43.269  43.006  26.899  1.00  0.00     0.101 C 
ATOM     39  H   UNL     1     -41.876  42.280  28.427  1.00  0.00     0.063 H 
ATOM     40  H   UNL     1     -43.708  42.460  24.825  1.00  0.00     0.056 H 
ATOM     41  H   UNL     1     -43.913  43.374  27.706  1.00  0.00     0.065 H 
BRANCH  33  42
ATOM     42  O   UNL     1     -41.159  41.878  26.557  1.00  0.00    -0.390 OA
ATOM     43  H   UNL     1     -41.486  42.245  25.707  1.00  0.00     0.211 HD
ENDBRANCH  33  42
BRANCH  35  44
ATOM     44  N   UNL     1     -45.467  42.668  25.839  1.00  0.00    -0.326 N 
ATOM     45  C   UNL     1     -46.528  42.109  26.499  1.00  0.00     0.010 A 
ATOM     46  C   UNL     1     -45.893  43.795  25.176  1.00  0.00     0.146 A 
ATOM     47  C   UNL     1     -47.671  42.846  26.225  1.00  0.00    -0.014 A 
ATOM     48  H   UNL     1     -46.411  41.225  27.110  1.00  0.00     0.082 H 
ATOM     49  C   UNL     1     -47.259  43.936  25.379  1.00  0.00     0.065 A 
ATOM     50  N   UNL     1     -45.091  44.615  24.467  1.00  0.00    -0.218 NA
ATOM     51  C   UNL     1     -47.864  45.038  24.747  1.00  0.00     0.136 A 
ATOM     52  C   UNL     1     -45.788  45.614  23.904  1.00  0.00     0.120 A 
ATOM     53  N   UNL     1     -47.103  45.870  24.007  1.00  0.00    -0.219 NA
ATOM     54  H   UNL     1     -45.219  46.309  23.292  1.00  0.00     0.106 H 
BRANCH  47  55
ATOM     55  C   UNL     1     -49.063  42.564  26.712  1.00  0.00    -0.014 C 
ATOM     56  C   UNL     1     -49.536  43.391  27.910  1.00  0.00    -0.046 C 
ATOM     57  C   UNL     1     -49.252  41.127  27.210  1.00  0.00    -0.046 C 
ATOM     58  H   UNL     1     -49.765  42.754  25.890  1.00  0.00     0.035 H 
ATOM     59  C   UNL     1     -50.782  42.647  28.364  1.00  0.00    -0.053 C 
ATOM     60  H   UNL     1     -49.751  44.430  27.642  1.00  0.00     0.027 H 
ATOM     61  H   UNL     1     -48.800  43.394  28.722  1.00  0.00     0.027 H 
ATOM     62  C   UNL     1     -50.449  41.172  28.162  1.00  0.00    -0.053 C 
ATOM     63  H   UNL     1     -48.366  40.776  27.753  1.00  0.00     0.027 H 
ATOM     64  H   UNL     1     -49.422  40.426  26.386  1.00  0.00     0.027 H 
ATOM     65  H   UNL     1     -51.049  42.874  29.400  1.00  0.00     0.027 H 
ATOM     66  H   UNL     1     -51.635  42.924  27.731  1.00  0.00     0.027 H 
ATOM     67  H   UNL     1     -51.308  40.632  27.751  1.00  0.00     0.027 H 
ATOM     68  H   UNL     1     -50.189  40.698  29.115  1.00  0.00     0.027 H 
ENDBRANCH  47  55
BRANCH  51  69
ATOM     69  N   UNL     1     -49.211  45.365  24.838  1.00  0.00    -0.383 N 
ATOM     70  H   UNL     1     -49.355  46.319  24.526  1.00  0.00     0.158 HD
ATOM     71  H   UNL     1     -49.645  45.123  25.716  1.00  0.00     0.158 HD
ENDBRANCH  51  69
ENDBRANCH  35  44
BRANCH  38  72
ATOM     72  O   UNL     1     -42.568  44.124  26.346  1.00  0.00    -0.388 OA
ATOM     73  H   UNL     1     -41.832  43.746  25.817  1.00  0.00     0.211 HD
ENDBRANCH  38  72
ENDBRANCH  28  31
ENDBRANCH   1  28
TORSDOF 11
ENDMDL
