MODEL 1
REMARK VINA RESULT:      -9.2      0.000      0.000
REMARK SMILES CC(C)c1cc(N2CCC2)c2ccc(OCc3cncc(-n4ccc5c(N)ncnc54)c3)cc2n1
REMARK SMILES IDX 16 1 15 4 14 5 4 6 5 7 35 8 6 9 34 11 11 12 33 13 12 14
REMARK SMILES IDX 13 16 2 19 1 21 3 25 7 29 8 30 10 31 9 32 17 39 18 40 32 41
REMARK SMILES IDX 19 42 21 44 20 46 22 48 23 49 31 50 24 51 25 53 30 54 26 56
REMARK SMILES IDX 29 57 28 58 27 60
REMARK H PARENT 16 2 16 3 5 10 33 15 12 17 13 18 2 20 1 22 1 23 1 24 3 26 3 27
REMARK H PARENT 3 28 8 33 8 34 10 35 10 36 9 37 9 38 18 43 32 45 20 47 23 52
REMARK H PARENT 24 55 29 59 27 61 27 62
REMARK Flexibility Score: inf
ROOT
ATOM      1  C   UNL     1     -46.596  33.586  26.483  1.00  0.00     0.115 C 
ATOM      2  H   UNL     1     -45.578  33.286  26.758  1.00  0.00     0.076 H 
ATOM      3  H   UNL     1     -46.613  33.639  25.387  1.00  0.00     0.076 H 
ENDROOT
BRANCH   1   4
ATOM      4  O   UNL     1     -47.539  32.574  26.850  1.00  0.00    -0.489 OA
BRANCH   4   5
ATOM      5  C   UNL     1     -48.078  31.790  25.869  1.00  0.00     0.122 A 
ATOM      6  C   UNL     1     -49.451  27.322  24.971  1.00  0.00     0.046 A 
ATOM      7  C   UNL     1     -49.819  27.613  23.665  1.00  0.00    -0.016 A 
ATOM      8  N   UNL     1     -48.914  28.250  25.792  1.00  0.00    -0.252 NA
ATOM      9  C   UNL     1     -49.626  28.905  23.162  1.00  0.00     0.048 A 
ATOM     10  H   UNL     1     -50.239  26.831  23.045  1.00  0.00     0.066 H 
ATOM     11  C   UNL     1     -48.763  29.505  25.344  1.00  0.00     0.076 A 
ATOM     12  C   UNL     1     -49.117  29.903  24.039  1.00  0.00     0.024 A 
ATOM     13  C   UNL     1     -48.243  30.448  26.220  1.00  0.00     0.007 A 
ATOM     14  C   UNL     1     -48.970  31.267  23.696  1.00  0.00    -0.047 A 
ATOM     15  H   UNL     1     -47.964  30.125  27.221  1.00  0.00     0.069 H 
ATOM     16  C   UNL     1     -48.449  32.199  24.597  1.00  0.00    -0.019 A 
ATOM     17  H   UNL     1     -49.282  31.620  22.717  1.00  0.00     0.063 H 
ATOM     18  H   UNL     1     -48.348  33.226  24.261  1.00  0.00     0.066 H 
BRANCH   6  19
ATOM     19  C   UNL     1     -49.634  25.922  25.523  1.00  0.00    -0.004 C 
ATOM     20  H   UNL     1     -49.674  25.208  24.691  1.00  0.00     0.036 H 
BRANCH  19  21
ATOM     21  C   UNL     1     -48.451  25.531  26.412  1.00  0.00    -0.057 C 
ATOM     22  H   UNL     1     -47.840  24.759  25.932  1.00  0.00     0.024 H 
ATOM     23  H   UNL     1     -47.800  26.388  26.621  1.00  0.00     0.024 H 
ATOM     24  H   UNL     1     -48.802  25.135  27.370  1.00  0.00     0.024 H 
ENDBRANCH  19  21
BRANCH  19  25
ATOM     25  C   UNL     1     -50.952  25.808  26.292  1.00  0.00    -0.057 C 
ATOM     26  H   UNL     1     -51.171  24.761  26.530  1.00  0.00     0.024 H 
ATOM     27  H   UNL     1     -51.786  26.199  25.699  1.00  0.00     0.024 H 
ATOM     28  H   UNL     1     -50.923  26.367  27.234  1.00  0.00     0.024 H 
ENDBRANCH  19  25
ENDBRANCH   6  19
BRANCH   9  29
ATOM     29  N   UNL     1     -49.948  29.207  21.805  1.00  0.00    -0.371 N 
ATOM     30  C   UNL     1     -51.269  29.192  21.217  1.00  0.00     0.019 C 
ATOM     31  C   UNL     1     -49.424  28.444  20.689  1.00  0.00     0.019 C 
ATOM     32  C   UNL     1     -50.571  29.032  19.866  1.00  0.00    -0.018 C 
ATOM     33  H   UNL     1     -51.879  28.329  21.503  1.00  0.00     0.049 H 
ATOM     34  H   UNL     1     -51.818  30.124  21.367  1.00  0.00     0.049 H 
ATOM     35  H   UNL     1     -48.425  28.735  20.362  1.00  0.00     0.049 H 
ATOM     36  H   UNL     1     -49.475  27.362  20.856  1.00  0.00     0.049 H 
ATOM     37  H   UNL     1     -50.332  29.978  19.364  1.00  0.00     0.030 H 
ATOM     38  H   UNL     1     -51.050  28.352  19.157  1.00  0.00     0.030 H 
ENDBRANCH   9  29
ENDBRANCH   4   5
ENDBRANCH   1   4
BRANCH   1  39
ATOM     39  C   UNL     1     -46.949  34.954  27.006  1.00  0.00     0.010 A 
ATOM     40  C   UNL     1     -48.278  35.348  27.075  1.00  0.00     0.034 A 
ATOM     41  C   UNL     1     -45.984  35.852  27.487  1.00  0.00    -0.028 A 
ATOM     42  N   UNL     1     -48.684  36.542  27.547  1.00  0.00    -0.262 NA
ATOM     43  H   UNL     1     -49.083  34.697  26.742  1.00  0.00     0.084 H 
ATOM     44  C   UNL     1     -46.363  37.108  27.984  1.00  0.00     0.066 A 
ATOM     45  H   UNL     1     -44.948  35.533  27.466  1.00  0.00     0.065 H 
ATOM     46  C   UNL     1     -47.722  37.395  27.988  1.00  0.00     0.051 A 
ATOM     47  H   UNL     1     -48.134  38.336  28.332  1.00  0.00     0.086 H 
BRANCH  44  48
ATOM     48  N   UNL     1     -45.386  38.043  28.455  1.00  0.00    -0.300 N 
ATOM     49  C   UNL     1     -44.728  37.963  29.676  1.00  0.00     0.012 A 
ATOM     50  C   UNL     1     -44.905  39.187  27.809  1.00  0.00     0.150 A 
ATOM     51  C   UNL     1     -43.854  39.018  29.803  1.00  0.00    -0.031 A 
ATOM     52  H   UNL     1     -44.904  37.150  30.367  1.00  0.00     0.082 H 
ATOM     53  C   UNL     1     -43.962  39.800  28.631  1.00  0.00     0.061 A 
ATOM     54  N   UNL     1     -45.282  39.652  26.601  1.00  0.00    -0.218 NA
ATOM     55  H   UNL     1     -43.202  39.198  30.647  1.00  0.00     0.065 H 
ATOM     56  C   UNL     1     -43.360  40.974  28.156  1.00  0.00     0.136 A 
ATOM     57  C   UNL     1     -44.642  40.777  26.253  1.00  0.00     0.120 A 
ATOM     58  N   UNL     1     -43.718  41.455  26.954  1.00  0.00    -0.219 NA
ATOM     59  H   UNL     1     -44.902  41.194  25.285  1.00  0.00     0.106 H 
BRANCH  56  60
ATOM     60  N   UNL     1     -42.414  41.695  28.871  1.00  0.00    -0.383 N 
ATOM     61  H   UNL     1     -42.155  42.536  28.369  1.00  0.00     0.158 HD
ATOM     62  H   UNL     1     -42.613  41.803  29.856  1.00  0.00     0.158 HD
ENDBRANCH  56  60
ENDBRANCH  44  48
ENDBRANCH   1  39
TORSDOF 9
ENDMDL
MODEL 2
REMARK VINA RESULT:      -9.2      1.091      3.482
REMARK SMILES CC(C)c1cc(N2CCC2)c2ccc(OCc3cncc(-n4ccc5c(N)ncnc54)c3)cc2n1
REMARK SMILES IDX 16 1 15 4 14 5 4 6 5 7 35 8 6 9 34 11 11 12 33 13 12 14
REMARK SMILES IDX 13 16 2 19 1 21 3 25 7 29 8 30 10 31 9 32 17 39 18 40 32 41
REMARK SMILES IDX 19 42 21 44 20 46 22 48 23 49 31 50 24 51 25 53 30 54 26 56
REMARK SMILES IDX 29 57 28 58 27 60
REMARK H PARENT 16 2 16 3 5 10 33 15 12 17 13 18 2 20 1 22 1 23 1 24 3 26 3 27
REMARK H PARENT 3 28 8 33 8 34 10 35 10 36 9 37 9 38 18 43 32 45 20 47 23 52
REMARK H PARENT 24 55 29 59 27 61 27 62
REMARK Flexibility Score: inf
ROOT
ATOM      1  C   UNL     1     -47.399  34.275  25.993  1.00  0.00     0.115 C 
ATOM      2  H   UNL     1     -46.690  33.646  26.545  1.00  0.00     0.076 H 
ATOM      3  H   UNL     1     -46.938  34.471  25.017  1.00  0.00     0.076 H 
ENDROOT
BRANCH   1   4
ATOM      4  O   UNL     1     -48.611  33.561  25.728  1.00  0.00    -0.489 OA
BRANCH   4   5
ATOM      5  C   UNL     1     -48.552  32.207  25.554  1.00  0.00     0.122 A 
ATOM      6  C   UNL     1     -49.166  28.819  22.269  1.00  0.00     0.046 A 
ATOM      7  C   UNL     1     -48.882  27.792  23.159  1.00  0.00    -0.016 A 
ATOM      8  N   UNL     1     -49.187  30.115  22.646  1.00  0.00    -0.252 NA
ATOM      9  C   UNL     1     -48.617  28.093  24.500  1.00  0.00     0.048 A 
ATOM     10  H   UNL     1     -48.886  26.769  22.807  1.00  0.00     0.066 H 
ATOM     11  C   UNL     1     -48.890  30.427  23.917  1.00  0.00     0.076 A 
ATOM     12  C   UNL     1     -48.578  29.459  24.892  1.00  0.00     0.024 A 
ATOM     13  C   UNL     1     -48.882  31.769  24.269  1.00  0.00     0.007 A 
ATOM     14  C   UNL     1     -48.221  29.908  26.185  1.00  0.00    -0.047 A 
ATOM     15  H   UNL     1     -49.136  32.505  23.509  1.00  0.00     0.069 H 
ATOM     16  C   UNL     1     -48.215  31.266  26.516  1.00  0.00    -0.019 A 
ATOM     17  H   UNL     1     -47.923  29.195  26.948  1.00  0.00     0.063 H 
ATOM     18  H   UNL     1     -47.948  31.539  27.531  1.00  0.00     0.066 H 
BRANCH   6  19
ATOM     19  C   UNL     1     -49.477  28.508  20.818  1.00  0.00    -0.004 C 
ATOM     20  H   UNL     1     -48.729  27.804  20.432  1.00  0.00     0.036 H 
BRANCH  19  21
ATOM     21  C   UNL     1     -50.849  27.843  20.688  1.00  0.00    -0.057 C 
ATOM     22  H   UNL     1     -50.821  27.027  19.958  1.00  0.00     0.024 H 
ATOM     23  H   UNL     1     -51.189  27.424  21.642  1.00  0.00     0.024 H 
ATOM     24  H   UNL     1     -51.600  28.568  20.355  1.00  0.00     0.024 H 
ENDBRANCH  19  21
BRANCH  19  25
ATOM     25  C   UNL     1     -49.404  29.774  19.962  1.00  0.00    -0.057 C 
ATOM     26  H   UNL     1     -48.863  29.579  19.029  1.00  0.00     0.024 H 
ATOM     27  H   UNL     1     -48.879  30.575  20.493  1.00  0.00     0.024 H 
ATOM     28  H   UNL     1     -50.400  30.146  19.699  1.00  0.00     0.024 H 
ENDBRANCH  19  25
ENDBRANCH   6  19
BRANCH   9  29
ATOM     29  N   UNL     1     -48.378  27.046  25.441  1.00  0.00    -0.371 N 
ATOM     30  C   UNL     1     -47.214  26.189  25.487  1.00  0.00     0.019 C 
ATOM     31  C   UNL     1     -49.250  25.895  25.567  1.00  0.00     0.019 C 
ATOM     32  C   UNL     1     -48.081  25.199  26.265  1.00  0.00    -0.018 C 
ATOM     33  H   UNL     1     -46.890  25.817  24.509  1.00  0.00     0.049 H 
ATOM     34  H   UNL     1     -46.377  26.627  26.034  1.00  0.00     0.049 H 
ATOM     35  H   UNL     1     -50.131  26.053  26.191  1.00  0.00     0.049 H 
ATOM     36  H   UNL     1     -49.536  25.472  24.598  1.00  0.00     0.049 H 
ATOM     37  H   UNL     1     -48.056  25.332  27.353  1.00  0.00     0.030 H 
ATOM     38  H   UNL     1     -47.939  24.143  26.022  1.00  0.00     0.030 H 
ENDBRANCH   9  29
ENDBRANCH   4   5
ENDBRANCH   1   4
BRANCH   1  39
ATOM     39  C   UNL     1     -47.620  35.607  26.662  1.00  0.00     0.010 A 
ATOM     40  C   UNL     1     -48.831  35.876  27.284  1.00  0.00     0.034 A 
ATOM     41  C   UNL     1     -46.624  36.592  26.735  1.00  0.00    -0.028 A 
ATOM     42  N   UNL     1     -49.107  37.030  27.922  1.00  0.00    -0.262 NA
ATOM     43  H   UNL     1     -49.642  35.154  27.288  1.00  0.00     0.084 H 
ATOM     44  C   UNL     1     -46.869  37.809  27.386  1.00  0.00     0.066 A 
ATOM     45  H   UNL     1     -45.665  36.370  26.279  1.00  0.00     0.065 H 
ATOM     46  C   UNL     1     -48.126  37.970  27.958  1.00  0.00     0.051 A 
ATOM     47  H   UNL     1     -48.438  38.870  28.474  1.00  0.00     0.086 H 
BRANCH  44  48
ATOM     48  N   UNL     1     -45.869  38.832  27.447  1.00  0.00    -0.300 N 
ATOM     49  C   UNL     1     -45.683  39.825  26.493  1.00  0.00     0.012 A 
ATOM     50  C   UNL     1     -44.909  39.041  28.443  1.00  0.00     0.150 A 
ATOM     51  C   UNL     1     -44.642  40.641  26.870  1.00  0.00    -0.031 A 
ATOM     52  H   UNL     1     -46.316  39.903  25.621  1.00  0.00     0.082 H 
ATOM     53  C   UNL     1     -44.142  40.151  28.097  1.00  0.00     0.061 A 
ATOM     54  N   UNL     1     -44.721  38.299  29.553  1.00  0.00    -0.218 NA
ATOM     55  H   UNL     1     -44.287  41.504  26.321  1.00  0.00     0.065 H 
ATOM     56  C   UNL     1     -43.115  40.524  28.976  1.00  0.00     0.136 A 
ATOM     57  C   UNL     1     -43.714  38.749  30.316  1.00  0.00     0.120 A 
ATOM     58  N   UNL     1     -42.911  39.802  30.091  1.00  0.00    -0.219 NA
ATOM     59  H   UNL     1     -43.522  38.193  31.228  1.00  0.00     0.106 H 
BRANCH  56  60
ATOM     60  N   UNL     1     -42.268  41.600  28.754  1.00  0.00    -0.383 N 
ATOM     61  H   UNL     1     -41.853  41.541  27.831  1.00  0.00     0.158 HD
ATOM     62  H   UNL     1     -42.640  42.501  29.023  1.00  0.00     0.158 HD
ENDBRANCH  56  60
ENDBRANCH  44  48
ENDBRANCH   1  39
TORSDOF 9
ENDMDL
MODEL 3
REMARK VINA RESULT:      -9.2      2.641     11.824
REMARK SMILES CC(C)c1cc(N2CCC2)c2ccc(OCc3cncc(-n4ccc5c(N)ncnc54)c3)cc2n1
REMARK SMILES IDX 16 1 15 4 14 5 4 6 5 7 35 8 6 9 34 11 11 12 33 13 12 14
REMARK SMILES IDX 13 16 2 19 1 21 3 25 7 29 8 30 10 31 9 32 17 39 18 40 32 41
REMARK SMILES IDX 19 42 21 44 20 46 22 48 23 49 31 50 24 51 25 53 30 54 26 56
REMARK SMILES IDX 29 57 28 58 27 60
REMARK H PARENT 16 2 16 3 5 10 33 15 12 17 13 18 2 20 1 22 1 23 1 24 3 26 3 27
REMARK H PARENT 3 28 8 33 8 34 10 35 10 36 9 37 9 38 18 43 32 45 20 47 23 52
REMARK H PARENT 24 55 29 59 27 61 27 62
REMARK Flexibility Score: inf
ROOT
ATOM      1  C   UNL     1     -48.430  36.232  27.244  1.00  0.00     0.115 C 
ATOM      2  H   UNL     1     -49.526  36.208  27.277  1.00  0.00     0.076 H 
ATOM      3  H   UNL     1     -48.164  36.860  26.385  1.00  0.00     0.076 H 
ENDROOT
BRANCH   1   4
ATOM      4  O   UNL     1     -47.901  36.888  28.400  1.00  0.00    -0.489 OA
BRANCH   4   5
ATOM      5  C   UNL     1     -46.921  37.826  28.233  1.00  0.00     0.122 A 
ATOM      6  C   UNL     1     -46.057  42.017  26.149  1.00  0.00     0.046 A 
ATOM      7  C   UNL     1     -44.741  42.054  26.589  1.00  0.00    -0.016 A 
ATOM      8  N   UNL     1     -46.876  40.975  26.412  1.00  0.00    -0.252 NA
ATOM      9  C   UNL     1     -44.226  40.980  27.323  1.00  0.00     0.048 A 
ATOM     10  H   UNL     1     -44.125  42.910  26.344  1.00  0.00     0.066 H 
ATOM     11  C   UNL     1     -46.413  39.957  27.154  1.00  0.00     0.076 A 
ATOM     12  C   UNL     1     -45.098  39.908  27.656  1.00  0.00     0.024 A 
ATOM     13  C   UNL     1     -47.286  38.917  27.441  1.00  0.00     0.007 A 
ATOM     14  C   UNL     1     -44.740  38.813  28.476  1.00  0.00    -0.047 A 
ATOM     15  H   UNL     1     -48.297  38.963  27.038  1.00  0.00     0.069 H 
ATOM     16  C   UNL     1     -45.637  37.779  28.757  1.00  0.00    -0.019 A 
ATOM     17  H   UNL     1     -43.751  38.767  28.925  1.00  0.00     0.063 H 
ATOM     18  H   UNL     1     -45.290  36.962  29.380  1.00  0.00     0.066 H 
BRANCH   6  19
ATOM     19  C   UNL     1     -46.625  43.163  25.334  1.00  0.00    -0.004 C 
ATOM     20  H   UNL     1     -47.102  42.761  24.431  1.00  0.00     0.036 H 
BRANCH  19  21
ATOM     21  C   UNL     1     -47.696  43.913  26.129  1.00  0.00    -0.057 C 
ATOM     22  H   UNL     1     -48.697  43.542  25.883  1.00  0.00     0.024 H 
ATOM     23  H   UNL     1     -47.556  43.798  27.209  1.00  0.00     0.024 H 
ATOM     24  H   UNL     1     -47.668  44.983  25.900  1.00  0.00     0.024 H 
ENDBRANCH  19  21
BRANCH  19  25
ATOM     25  C   UNL     1     -45.514  44.115  24.886  1.00  0.00    -0.057 C 
ATOM     26  H   UNL     1     -45.156  44.715  25.729  1.00  0.00     0.024 H 
ATOM     27  H   UNL     1     -45.877  44.802  24.114  1.00  0.00     0.024 H 
ATOM     28  H   UNL     1     -44.657  43.573  24.472  1.00  0.00     0.024 H 
ENDBRANCH  19  25
ENDBRANCH   6  19
BRANCH   9  29
ATOM     29  N   UNL     1     -42.859  40.978  27.735  1.00  0.00    -0.371 N 
ATOM     30  C   UNL     1     -42.361  41.346  29.041  1.00  0.00     0.019 C 
ATOM     31  C   UNL     1     -41.850  41.801  27.099  1.00  0.00     0.019 C 
ATOM     32  C   UNL     1     -41.012  41.592  28.362  1.00  0.00    -0.018 C 
ATOM     33  H   UNL     1     -42.816  42.251  29.458  1.00  0.00     0.049 H 
ATOM     34  H   UNL     1     -42.392  40.527  29.762  1.00  0.00     0.049 H 
ATOM     35  H   UNL     1     -41.421  41.382  26.188  1.00  0.00     0.049 H 
ATOM     36  H   UNL     1     -42.189  42.829  26.928  1.00  0.00     0.049 H 
ATOM     37  H   UNL     1     -40.354  40.716  28.331  1.00  0.00     0.030 H 
ATOM     38  H   UNL     1     -40.450  42.461  28.713  1.00  0.00     0.030 H 
ENDBRANCH   9  29
ENDBRANCH   4   5
ENDBRANCH   1   4
BRANCH   1  39
ATOM     39  C   UNL     1     -47.838  34.867  27.004  1.00  0.00     0.010 A 
ATOM     40  C   UNL     1     -46.806  34.409  27.810  1.00  0.00     0.034 A 
ATOM     41  C   UNL     1     -48.322  33.995  26.017  1.00  0.00    -0.028 A 
ATOM     42  N   UNL     1     -46.233  33.196  27.680  1.00  0.00    -0.262 NA
ATOM     43  H   UNL     1     -46.394  35.019  28.610  1.00  0.00     0.084 H 
ATOM     44  C   UNL     1     -47.752  32.725  25.844  1.00  0.00     0.066 A 
ATOM     45  H   UNL     1     -49.151  34.338  25.408  1.00  0.00     0.065 H 
ATOM     46  C   UNL     1     -46.713  32.384  26.702  1.00  0.00     0.051 A 
ATOM     47  H   UNL     1     -46.185  31.440  26.656  1.00  0.00     0.086 H 
BRANCH  44  48
ATOM     48  N   UNL     1     -48.221  31.835  24.824  1.00  0.00    -0.300 N 
ATOM     49  C   UNL     1     -49.464  31.215  24.816  1.00  0.00     0.012 A 
ATOM     50  C   UNL     1     -47.553  31.423  23.666  1.00  0.00     0.150 A 
ATOM     51  C   UNL     1     -49.586  30.437  23.689  1.00  0.00    -0.031 A 
ATOM     52  H   UNL     1     -50.191  31.385  25.598  1.00  0.00     0.082 H 
ATOM     53  C   UNL     1     -48.383  30.556  22.959  1.00  0.00     0.061 A 
ATOM     54  N   UNL     1     -46.309  31.774  23.281  1.00  0.00    -0.218 NA
ATOM     55  H   UNL     1     -50.456  29.852  23.419  1.00  0.00     0.065 H 
ATOM     56  C   UNL     1     -47.887  30.027  21.758  1.00  0.00     0.136 A 
ATOM     57  C   UNL     1     -45.944  31.209  22.122  1.00  0.00     0.120 A 
ATOM     58  N   UNL     1     -46.652  30.366  21.353  1.00  0.00    -0.219 NA
ATOM     59  H   UNL     1     -44.953  31.462  21.759  1.00  0.00     0.106 H 
BRANCH  56  60
ATOM     60  N   UNL     1     -48.598  29.146  20.957  1.00  0.00    -0.383 N 
ATOM     61  H   UNL     1     -49.043  28.431  21.522  1.00  0.00     0.158 HD
ATOM     62  H   UNL     1     -49.173  29.579  20.248  1.00  0.00     0.158 HD
ENDBRANCH  56  60
ENDBRANCH  44  48
ENDBRANCH   1  39
TORSDOF 9
ENDMDL
MODEL 4
REMARK VINA RESULT:      -9.1      1.927      3.055
REMARK SMILES CC(C)c1cc(N2CCC2)c2ccc(OCc3cncc(-n4ccc5c(N)ncnc54)c3)cc2n1
REMARK SMILES IDX 16 1 15 4 14 5 4 6 5 7 35 8 6 9 34 11 11 12 33 13 12 14
REMARK SMILES IDX 13 16 2 19 1 21 3 25 7 29 8 30 10 31 9 32 17 39 18 40 32 41
REMARK SMILES IDX 19 42 21 44 20 46 22 48 23 49 31 50 24 51 25 53 30 54 26 56
REMARK SMILES IDX 29 57 28 58 27 60
REMARK H PARENT 16 2 16 3 5 10 33 15 12 17 13 18 2 20 1 22 1 23 1 24 3 26 3 27
REMARK H PARENT 3 28 8 33 8 34 10 35 10 36 9 37 9 38 18 43 32 45 20 47 23 52
REMARK H PARENT 24 55 29 59 27 61 27 62
REMARK Flexibility Score: inf
ROOT
ATOM      1  C   UNL     1     -47.554  35.431  27.991  1.00  0.00     0.115 C 
ATOM      2  H   UNL     1     -47.885  35.775  27.003  1.00  0.00     0.076 H 
ATOM      3  H   UNL     1     -48.462  35.325  28.597  1.00  0.00     0.076 H 
ENDROOT
BRANCH   1   4
ATOM      4  O   UNL     1     -46.974  34.126  27.906  1.00  0.00    -0.489 OA
BRANCH   4   5
ATOM      5  C   UNL     1     -47.022  33.462  26.712  1.00  0.00     0.122 A 
ATOM      6  C   UNL     1     -48.752  29.519  24.683  1.00  0.00     0.046 A 
ATOM      7  C   UNL     1     -48.188  29.812  23.449  1.00  0.00    -0.016 A 
ATOM      8  N   UNL     1     -48.573  30.311  25.763  1.00  0.00    -0.252 NA
ATOM      9  C   UNL     1     -47.395  30.956  23.303  1.00  0.00     0.048 A 
ATOM     10  H   UNL     1     -48.356  29.140  22.617  1.00  0.00     0.066 H 
ATOM     11  C   UNL     1     -47.855  31.437  25.631  1.00  0.00     0.076 A 
ATOM     12  C   UNL     1     -47.251  31.826  24.419  1.00  0.00     0.024 A 
ATOM     13  C   UNL     1     -47.717  32.251  26.747  1.00  0.00     0.007 A 
ATOM     14  C   UNL     1     -46.569  33.064  24.383  1.00  0.00    -0.047 A 
ATOM     15  H   UNL     1     -48.179  31.932  27.680  1.00  0.00     0.069 H 
ATOM     16  C   UNL     1     -46.447  33.870  25.518  1.00  0.00    -0.019 A 
ATOM     17  H   UNL     1     -46.136  33.422  23.453  1.00  0.00     0.063 H 
ATOM     18  H   UNL     1     -45.895  34.799  25.423  1.00  0.00     0.066 H 
BRANCH   6  19
ATOM     19  C   UNL     1     -49.595  28.272  24.863  1.00  0.00    -0.004 C 
ATOM     20  H   UNL     1     -50.649  28.562  24.964  1.00  0.00     0.036 H 
BRANCH  19  21
ATOM     21  C   UNL     1     -49.482  27.361  23.639  1.00  0.00    -0.057 C 
ATOM     22  H   UNL     1     -50.396  27.400  23.036  1.00  0.00     0.024 H 
ATOM     23  H   UNL     1     -48.646  27.651  22.993  1.00  0.00     0.024 H 
ATOM     24  H   UNL     1     -49.325  26.322  23.944  1.00  0.00     0.024 H 
ENDBRANCH  19  21
BRANCH  19  25
ATOM     25  C   UNL     1     -49.197  27.524  26.136  1.00  0.00    -0.057 C 
ATOM     26  H   UNL     1     -48.615  26.629  25.892  1.00  0.00     0.024 H 
ATOM     27  H   UNL     1     -50.084  27.207  26.696  1.00  0.00     0.024 H 
ATOM     28  H   UNL     1     -48.590  28.148  26.801  1.00  0.00     0.024 H 
ENDBRANCH  19  25
ENDBRANCH   6  19
BRANCH   9  29
ATOM     29  N   UNL     1     -46.762  31.241  22.056  1.00  0.00    -0.371 N 
ATOM     30  C   UNL     1     -47.344  31.065  20.744  1.00  0.00     0.019 C 
ATOM     31  C   UNL     1     -45.548  30.578  21.626  1.00  0.00     0.019 C 
ATOM     32  C   UNL     1     -45.911  31.027  20.209  1.00  0.00    -0.018 C 
ATOM     33  H   UNL     1     -47.887  30.123  20.615  1.00  0.00     0.049 H 
ATOM     34  H   UNL     1     -47.953  31.912  20.424  1.00  0.00     0.049 H 
ATOM     35  H   UNL     1     -44.626  31.004  22.022  1.00  0.00     0.049 H 
ATOM     36  H   UNL     1     -45.575  29.495  21.795  1.00  0.00     0.049 H 
ATOM     37  H   UNL     1     -45.507  32.006  19.925  1.00  0.00     0.030 H 
ATOM     38  H   UNL     1     -45.715  30.304  19.413  1.00  0.00     0.030 H 
ENDBRANCH   9  29
ENDBRANCH   4   5
ENDBRANCH   1   4
BRANCH   1  39
ATOM     39  C   UNL     1     -46.669  36.439  28.678  1.00  0.00     0.010 A 
ATOM     40  C   UNL     1     -46.375  36.297  30.027  1.00  0.00     0.034 A 
ATOM     41  C   UNL     1     -46.070  37.509  27.996  1.00  0.00    -0.028 A 
ATOM     42  N   UNL     1     -45.577  37.138  30.714  1.00  0.00    -0.262 NA
ATOM     43  H   UNL     1     -46.784  35.480  30.616  1.00  0.00     0.084 H 
ATOM     44  C   UNL     1     -45.236  38.410  28.674  1.00  0.00     0.066 A 
ATOM     45  H   UNL     1     -46.270  37.602  26.934  1.00  0.00     0.065 H 
ATOM     46  C   UNL     1     -45.029  38.173  30.027  1.00  0.00     0.051 A 
ATOM     47  H   UNL     1     -44.419  38.808  30.659  1.00  0.00     0.086 H 
BRANCH  44  48
ATOM     48  N   UNL     1     -44.638  39.521  27.995  1.00  0.00    -0.300 N 
ATOM     49  C   UNL     1     -45.022  39.993  26.746  1.00  0.00     0.012 A 
ATOM     50  C   UNL     1     -43.586  40.333  28.431  1.00  0.00     0.150 A 
ATOM     51  C   UNL     1     -44.243  41.073  26.399  1.00  0.00    -0.031 A 
ATOM     52  H   UNL     1     -45.838  39.549  26.194  1.00  0.00     0.082 H 
ATOM     53  C   UNL     1     -43.329  41.292  27.454  1.00  0.00     0.061 A 
ATOM     54  N   UNL     1     -42.904  40.220  29.589  1.00  0.00    -0.218 NA
ATOM     55  H   UNL     1     -44.332  41.646  25.485  1.00  0.00     0.065 H 
ATOM     56  C   UNL     1     -42.297  42.208  27.706  1.00  0.00     0.136 A 
ATOM     57  C   UNL     1     -41.944  41.147  29.719  1.00  0.00     0.120 A 
ATOM     58  N   UNL     1     -41.606  42.117  28.854  1.00  0.00    -0.219 NA
ATOM     59  H   UNL     1     -41.366  41.108  30.637  1.00  0.00     0.106 H 
BRANCH  56  60
ATOM     60  N   UNL     1     -41.926  43.208  26.819  1.00  0.00    -0.383 N 
ATOM     61  H   UNL     1     -42.738  43.573  26.335  1.00  0.00     0.158 HD
ATOM     62  H   UNL     1     -41.280  43.891  27.190  1.00  0.00     0.158 HD
ENDBRANCH  56  60
ENDBRANCH  44  48
ENDBRANCH   1  39
TORSDOF 9
ENDMDL
MODEL 5
REMARK VINA RESULT:      -9.1      2.802     11.743
REMARK SMILES CC(C)c1cc(N2CCC2)c2ccc(OCc3cncc(-n4ccc5c(N)ncnc54)c3)cc2n1
REMARK SMILES IDX 16 1 15 4 14 5 4 6 5 7 35 8 6 9 34 11 11 12 33 13 12 14
REMARK SMILES IDX 13 16 2 19 1 21 3 25 7 29 8 30 10 31 9 32 17 39 18 40 32 41
REMARK SMILES IDX 19 42 21 44 20 46 22 48 23 49 31 50 24 51 25 53 30 54 26 56
REMARK SMILES IDX 29 57 28 58 27 60
REMARK H PARENT 16 2 16 3 5 10 33 15 12 17 13 18 2 20 1 22 1 23 1 24 3 26 3 27
REMARK H PARENT 3 28 8 33 8 34 10 35 10 36 9 37 9 38 18 43 32 45 20 47 23 52
REMARK H PARENT 24 55 29 59 27 61 27 62
REMARK Flexibility Score: inf
ROOT
ATOM      1  C   UNL     1     -48.100  36.479  27.354  1.00  0.00     0.115 C 
ATOM      2  H   UNL     1     -49.145  36.401  27.680  1.00  0.00     0.076 H 
ATOM      3  H   UNL     1     -48.125  36.933  26.356  1.00  0.00     0.076 H 
ENDROOT
BRANCH   1   4
ATOM      4  O   UNL     1     -47.374  37.385  28.190  1.00  0.00    -0.489 OA
BRANCH   4   5
ATOM      5  C   UNL     1     -46.827  38.504  27.627  1.00  0.00     0.122 A 
ATOM      6  C   UNL     1     -43.053  41.389  27.929  1.00  0.00     0.046 A 
ATOM      7  C   UNL     1     -43.511  42.223  26.918  1.00  0.00    -0.016 A 
ATOM      8  N   UNL     1     -43.761  40.322  28.358  1.00  0.00    -0.252 NA
ATOM      9  C   UNL     1     -44.750  41.970  26.319  1.00  0.00     0.048 A 
ATOM     10  H   UNL     1     -42.907  43.070  26.616  1.00  0.00     0.066 H 
ATOM     11  C   UNL     1     -44.930  40.036  27.764  1.00  0.00     0.076 A 
ATOM     12  C   UNL     1     -45.473  40.815  26.723  1.00  0.00     0.024 A 
ATOM     13  C   UNL     1     -45.620  38.913  28.199  1.00  0.00     0.007 A 
ATOM     14  C   UNL     1     -46.683  40.383  26.132  1.00  0.00    -0.047 A 
ATOM     15  H   UNL     1     -45.194  38.327  29.012  1.00  0.00     0.069 H 
ATOM     16  C   UNL     1     -47.358  39.246  26.583  1.00  0.00    -0.019 A 
ATOM     17  H   UNL     1     -47.105  40.928  25.292  1.00  0.00     0.063 H 
ATOM     18  H   UNL     1     -48.290  38.982  26.094  1.00  0.00     0.066 H 
BRANCH   6  19
ATOM     19  C   UNL     1     -41.722  41.662  28.602  1.00  0.00    -0.004 C 
ATOM     20  H   UNL     1     -41.661  42.726  28.861  1.00  0.00     0.036 H 
BRANCH  19  21
ATOM     21  C   UNL     1     -41.600  40.862  29.901  1.00  0.00    -0.057 C 
ATOM     22  H   UNL     1     -40.708  40.225  29.886  1.00  0.00     0.024 H 
ATOM     23  H   UNL     1     -41.525  41.518  30.776  1.00  0.00     0.024 H 
ATOM     24  H   UNL     1     -42.473  40.216  30.041  1.00  0.00     0.024 H 
ENDBRANCH  19  21
BRANCH  19  25
ATOM     25  C   UNL     1     -40.560  41.348  27.659  1.00  0.00    -0.057 C 
ATOM     26  H   UNL     1     -40.550  42.044  26.813  1.00  0.00     0.024 H 
ATOM     27  H   UNL     1     -40.645  40.332  27.258  1.00  0.00     0.024 H 
ATOM     28  H   UNL     1     -39.592  41.424  28.167  1.00  0.00     0.024 H 
ENDBRANCH  19  25
ENDBRANCH   6  19
BRANCH   9  29
ATOM     29  N   UNL     1     -45.260  42.850  25.316  1.00  0.00    -0.371 N 
ATOM     30  C   UNL     1     -44.475  43.676  24.427  1.00  0.00     0.019 C 
ATOM     31  C   UNL     1     -46.121  43.973  25.628  1.00  0.00     0.019 C 
ATOM     32  C   UNL     1     -45.729  44.537  24.261  1.00  0.00    -0.018 C 
ATOM     33  H   UNL     1     -43.644  44.198  24.913  1.00  0.00     0.049 H 
ATOM     34  H   UNL     1     -44.134  43.148  23.535  1.00  0.00     0.049 H 
ATOM     35  H   UNL     1     -47.178  43.725  25.738  1.00  0.00     0.049 H 
ATOM     36  H   UNL     1     -45.769  44.550  26.491  1.00  0.00     0.049 H 
ATOM     37  H   UNL     1     -46.384  44.230  23.437  1.00  0.00     0.030 H 
ATOM     38  H   UNL     1     -45.567  45.617  24.218  1.00  0.00     0.030 H 
ENDBRANCH   9  29
ENDBRANCH   4   5
ENDBRANCH   1   4
BRANCH   1  39
ATOM     39  C   UNL     1     -47.444  35.130  27.219  1.00  0.00     0.010 A 
ATOM     40  C   UNL     1     -46.676  34.626  28.259  1.00  0.00     0.034 A 
ATOM     41  C   UNL     1     -47.615  34.314  26.090  1.00  0.00    -0.028 A 
ATOM     42  N   UNL     1     -46.071  33.422  28.231  1.00  0.00    -0.262 NA
ATOM     43  H   UNL     1     -46.517  35.189  29.174  1.00  0.00     0.084 H 
ATOM     44  C   UNL     1     -47.000  33.056  26.017  1.00  0.00     0.066 A 
ATOM     45  H   UNL     1     -48.243  34.692  25.289  1.00  0.00     0.065 H 
ATOM     46  C   UNL     1     -46.243  32.666  27.115  1.00  0.00     0.051 A 
ATOM     47  H   UNL     1     -45.708  31.725  27.170  1.00  0.00     0.086 H 
BRANCH  44  48
ATOM     48  N   UNL     1     -47.147  32.225  24.860  1.00  0.00    -0.300 N 
ATOM     49  C   UNL     1     -46.103  31.775  24.062  1.00  0.00     0.012 A 
ATOM     50  C   UNL     1     -48.327  31.708  24.315  1.00  0.00     0.150 A 
ATOM     51  C   UNL     1     -46.600  30.995  23.043  1.00  0.00    -0.031 A 
ATOM     52  H   UNL     1     -45.073  32.018  24.281  1.00  0.00     0.082 H 
ATOM     53  C   UNL     1     -48.004  30.951  23.191  1.00  0.00     0.061 A 
ATOM     54  N   UNL     1     -49.582  31.905  24.768  1.00  0.00    -0.218 NA
ATOM     55  H   UNL     1     -46.010  30.504  22.281  1.00  0.00     0.065 H 
ATOM     56  C   UNL     1     -49.062  30.345  22.496  1.00  0.00     0.136 A 
ATOM     57  C   UNL     1     -50.508  31.280  24.026  1.00  0.00     0.120 A 
ATOM     58  N   UNL     1     -50.320  30.525  22.931  1.00  0.00    -0.219 NA
ATOM     59  H   UNL     1     -51.537  31.399  24.349  1.00  0.00     0.106 H 
BRANCH  56  60
ATOM     60  N   UNL     1     -48.889  29.573  21.357  1.00  0.00    -0.383 N 
ATOM     61  H   UNL     1     -48.191  28.856  21.516  1.00  0.00     0.158 HD
ATOM     62  H   UNL     1     -49.743  29.276  20.906  1.00  0.00     0.158 HD
ENDBRANCH  56  60
ENDBRANCH  44  48
ENDBRANCH   1  39
TORSDOF 9
ENDMDL
MODEL 6
REMARK VINA RESULT:      -9.0      2.336      3.483
REMARK SMILES CC(C)c1cc(N2CCC2)c2ccc(OCc3cncc(-n4ccc5c(N)ncnc54)c3)cc2n1
REMARK SMILES IDX 16 1 15 4 14 5 4 6 5 7 35 8 6 9 34 11 11 12 33 13 12 14
REMARK SMILES IDX 13 16 2 19 1 21 3 25 7 29 8 30 10 31 9 32 17 39 18 40 32 41
REMARK SMILES IDX 19 42 21 44 20 46 22 48 23 49 31 50 24 51 25 53 30 54 26 56
REMARK SMILES IDX 29 57 28 58 27 60
REMARK H PARENT 16 2 16 3 5 10 33 15 12 17 13 18 2 20 1 22 1 23 1 24 3 26 3 27
REMARK H PARENT 3 28 8 33 8 34 10 35 10 36 9 37 9 38 18 43 32 45 20 47 23 52
REMARK H PARENT 24 55 29 59 27 61 27 62
REMARK Flexibility Score: inf
ROOT
ATOM      1  C   UNL     1     -47.081  35.797  28.135  1.00  0.00     0.115 C 
ATOM      2  H   UNL     1     -46.975  35.492  29.183  1.00  0.00     0.076 H 
ATOM      3  H   UNL     1     -46.177  35.445  27.622  1.00  0.00     0.076 H 
ENDROOT
BRANCH   1   4
ATOM      4  O   UNL     1     -48.182  35.122  27.518  1.00  0.00    -0.489 OA
BRANCH   4   5
ATOM      5  C   UNL     1     -47.923  34.149  26.594  1.00  0.00     0.122 A 
ATOM      6  C   UNL     1     -50.080  30.889  23.878  1.00  0.00     0.046 A 
ATOM      7  C   UNL     1     -48.884  30.425  23.348  1.00  0.00    -0.016 A 
ATOM      8  N   UNL     1     -50.124  31.868  24.808  1.00  0.00    -0.252 NA
ATOM      9  C   UNL     1     -47.673  30.971  23.788  1.00  0.00     0.048 A 
ATOM     10  H   UNL     1     -48.904  29.633  22.610  1.00  0.00     0.066 H 
ATOM     11  C   UNL     1     -48.976  32.436  25.208  1.00  0.00     0.076 A 
ATOM     12  C   UNL     1     -47.714  32.042  24.721  1.00  0.00     0.024 A 
ATOM     13  C   UNL     1     -49.052  33.465  26.137  1.00  0.00     0.007 A 
ATOM     14  C   UNL     1     -46.577  32.754  25.170  1.00  0.00    -0.047 A 
ATOM     15  H   UNL     1     -50.033  33.751  26.513  1.00  0.00     0.069 H 
ATOM     16  C   UNL     1     -46.677  33.790  26.102  1.00  0.00    -0.019 A 
ATOM     17  H   UNL     1     -45.593  32.514  24.776  1.00  0.00     0.063 H 
ATOM     18  H   UNL     1     -45.762  34.281  26.414  1.00  0.00     0.066 H 
BRANCH   6  19
ATOM     19  C   UNL     1     -51.400  30.294  23.428  1.00  0.00    -0.004 C 
ATOM     20  H   UNL     1     -52.219  30.784  23.969  1.00  0.00     0.036 H 
BRANCH  19  21
ATOM     21  C   UNL     1     -51.621  30.535  21.934  1.00  0.00    -0.057 C 
ATOM     22  H   UNL     1     -52.459  29.936  21.560  1.00  0.00     0.024 H 
ATOM     23  H   UNL     1     -51.844  31.587  21.721  1.00  0.00     0.024 H 
ATOM     24  H   UNL     1     -50.729  30.260  21.362  1.00  0.00     0.024 H 
ENDBRANCH  19  21
BRANCH  19  25
ATOM     25  C   UNL     1     -51.462  28.800  23.753  1.00  0.00    -0.057 C 
ATOM     26  H   UNL     1     -50.837  28.567  24.621  1.00  0.00     0.024 H 
ATOM     27  H   UNL     1     -51.102  28.201  22.909  1.00  0.00     0.024 H 
ATOM     28  H   UNL     1     -52.484  28.475  23.979  1.00  0.00     0.024 H 
ENDBRANCH  19  25
ENDBRANCH   6  19
BRANCH   9  29
ATOM     29  N   UNL     1     -46.432  30.466  23.293  1.00  0.00    -0.371 N 
ATOM     30  C   UNL     1     -45.828  30.785  22.019  1.00  0.00     0.019 C 
ATOM     31  C   UNL     1     -46.197  29.054  23.071  1.00  0.00     0.019 C 
ATOM     32  C   UNL     1     -45.042  29.481  22.164  1.00  0.00    -0.018 C 
ATOM     33  H   UNL     1     -46.528  30.786  21.177  1.00  0.00     0.049 H 
ATOM     34  H   UNL     1     -45.241  31.705  22.038  1.00  0.00     0.049 H 
ATOM     35  H   UNL     1     -45.902  28.492  23.958  1.00  0.00     0.049 H 
ATOM     36  H   UNL     1     -47.033  28.560  22.563  1.00  0.00     0.049 H 
ATOM     37  H   UNL     1     -44.078  29.588  22.676  1.00  0.00     0.030 H 
ATOM     38  H   UNL     1     -44.909  28.897  21.250  1.00  0.00     0.030 H 
ENDBRANCH   9  29
ENDBRANCH   4   5
ENDBRANCH   1   4
BRANCH   1  39
ATOM     39  C   UNL     1     -47.131  37.295  27.980  1.00  0.00     0.010 A 
ATOM     40  C   UNL     1     -48.352  37.954  28.015  1.00  0.00     0.034 A 
ATOM     41  C   UNL     1     -45.977  38.082  27.852  1.00  0.00    -0.028 A 
ATOM     42  N   UNL     1     -48.489  39.290  27.906  1.00  0.00    -0.262 NA
ATOM     43  H   UNL     1     -49.288  37.413  28.134  1.00  0.00     0.084 H 
ATOM     44  C   UNL     1     -46.073  39.476  27.731  1.00  0.00     0.066 A 
ATOM     45  H   UNL     1     -45.019  37.573  27.859  1.00  0.00     0.065 H 
ATOM     46  C   UNL     1     -47.352  40.020  27.764  1.00  0.00     0.051 A 
ATOM     47  H   UNL     1     -47.554  41.080  27.664  1.00  0.00     0.086 H 
BRANCH  44  48
ATOM     48  N   UNL     1     -44.904  40.289  27.575  1.00  0.00    -0.300 N 
ATOM     49  C   UNL     1     -43.758  40.196  28.355  1.00  0.00     0.012 A 
ATOM     50  C   UNL     1     -44.677  41.303  26.639  1.00  0.00     0.150 A 
ATOM     51  C   UNL     1     -42.830  41.118  27.929  1.00  0.00    -0.031 A 
ATOM     52  H   UNL     1     -43.664  39.467  29.147  1.00  0.00     0.082 H 
ATOM     53  C   UNL     1     -43.403  41.826  26.849  1.00  0.00     0.061 A 
ATOM     54  N   UNL     1     -45.535  41.735  25.692  1.00  0.00    -0.218 NA
ATOM     55  H   UNL     1     -41.842  41.258  28.347  1.00  0.00     0.065 H 
ATOM     56  C   UNL     1     -42.987  42.866  26.004  1.00  0.00     0.136 A 
ATOM     57  C   UNL     1     -45.029  42.729  24.947  1.00  0.00     0.120 A 
ATOM     58  N   UNL     1     -43.823  43.311  25.051  1.00  0.00    -0.219 NA
ATOM     59  H   UNL     1     -45.674  43.113  24.163  1.00  0.00     0.106 H 
BRANCH  56  60
ATOM     60  N   UNL     1     -41.751  43.487  26.104  1.00  0.00    -0.383 N 
ATOM     61  H   UNL     1     -41.725  44.098  26.913  1.00  0.00     0.158 HD
ATOM     62  H   UNL     1     -40.954  42.879  25.975  1.00  0.00     0.158 HD
ENDBRANCH  56  60
ENDBRANCH  44  48
ENDBRANCH   1  39
TORSDOF 9
ENDMDL
MODEL 7
REMARK VINA RESULT:      -8.9      2.611      3.956
REMARK SMILES CC(C)c1cc(N2CCC2)c2ccc(OCc3cncc(-n4ccc5c(N)ncnc54)c3)cc2n1
REMARK SMILES IDX 16 1 15 4 14 5 4 6 5 7 35 8 6 9 34 11 11 12 33 13 12 14
REMARK SMILES IDX 13 16 2 19 1 21 3 25 7 29 8 30 10 31 9 32 17 39 18 40 32 41
REMARK SMILES IDX 19 42 21 44 20 46 22 48 23 49 31 50 24 51 25 53 30 54 26 56
REMARK SMILES IDX 29 57 28 58 27 60
REMARK H PARENT 16 2 16 3 5 10 33 15 12 17 13 18 2 20 1 22 1 23 1 24 3 26 3 27
REMARK H PARENT 3 28 8 33 8 34 10 35 10 36 9 37 9 38 18 43 32 45 20 47 23 52
REMARK H PARENT 24 55 29 59 27 61 27 62
REMARK Flexibility Score: inf
ROOT
ATOM      1  C   UNL     1     -46.669  36.567  27.610  1.00  0.00     0.115 C 
ATOM      2  H   UNL     1     -46.735  36.959  26.588  1.00  0.00     0.076 H 
ATOM      3  H   UNL     1     -47.684  36.616  28.023  1.00  0.00     0.076 H 
ENDROOT
BRANCH   1   4
ATOM      4  O   UNL     1     -46.307  35.183  27.599  1.00  0.00    -0.489 OA
BRANCH   4   5
ATOM      5  C   UNL     1     -47.038  34.317  26.835  1.00  0.00     0.122 A 
ATOM      6  C   UNL     1     -46.607  31.131  23.325  1.00  0.00     0.046 A 
ATOM      7  C   UNL     1     -47.969  30.864  23.294  1.00  0.00    -0.016 A 
ATOM      8  N   UNL     1     -46.073  32.049  24.159  1.00  0.00    -0.252 NA
ATOM      9  C   UNL     1     -48.833  31.567  24.142  1.00  0.00     0.048 A 
ATOM     10  H   UNL     1     -48.348  30.123  22.601  1.00  0.00     0.066 H 
ATOM     11  C   UNL     1     -46.878  32.701  25.012  1.00  0.00     0.076 A 
ATOM     12  C   UNL     1     -48.271  32.491  25.064  1.00  0.00     0.024 A 
ATOM     13  C   UNL     1     -46.298  33.611  25.883  1.00  0.00     0.007 A 
ATOM     14  C   UNL     1     -49.012  33.190  26.045  1.00  0.00    -0.047 A 
ATOM     15  H   UNL     1     -45.223  33.771  25.825  1.00  0.00     0.069 H 
ATOM     16  C   UNL     1     -48.405  34.099  26.916  1.00  0.00    -0.019 A 
ATOM     17  H   UNL     1     -50.079  33.015  26.151  1.00  0.00     0.063 H 
ATOM     18  H   UNL     1     -49.037  34.613  27.633  1.00  0.00     0.066 H 
BRANCH   6  19
ATOM     19  C   UNL     1     -45.661  30.394  22.399  1.00  0.00    -0.004 C 
ATOM     20  H   UNL     1     -44.629  30.690  22.627  1.00  0.00     0.036 H 
BRANCH  19  21
ATOM     21  C   UNL     1     -45.766  28.882  22.610  1.00  0.00    -0.057 C 
ATOM     22  H   UNL     1     -45.911  28.363  21.656  1.00  0.00     0.024 H 
ATOM     23  H   UNL     1     -44.863  28.473  23.077  1.00  0.00     0.024 H 
ATOM     24  H   UNL     1     -46.616  28.640  23.256  1.00  0.00     0.024 H 
ENDBRANCH  19  21
BRANCH  19  25
ATOM     25  C   UNL     1     -45.933  30.759  20.938  1.00  0.00    -0.057 C 
ATOM     26  H   UNL     1     -46.823  31.393  20.858  1.00  0.00     0.024 H 
ATOM     27  H   UNL     1     -46.106  29.860  20.336  1.00  0.00     0.024 H 
ATOM     28  H   UNL     1     -45.093  31.302  20.492  1.00  0.00     0.024 H 
ENDBRANCH  19  25
ENDBRANCH   6  19
BRANCH   9  29
ATOM     29  N   UNL     1     -50.242  31.343  24.083  1.00  0.00    -0.371 N 
ATOM     30  C   UNL     1     -50.895  30.079  23.830  1.00  0.00     0.019 C 
ATOM     31  C   UNL     1     -51.097  32.000  23.114  1.00  0.00     0.019 C 
ATOM     32  C   UNL     1     -52.116  30.895  23.400  1.00  0.00    -0.018 C 
ATOM     33  H   UNL     1     -50.448  29.496  23.018  1.00  0.00     0.049 H 
ATOM     34  H   UNL     1     -51.017  29.469  24.726  1.00  0.00     0.049 H 
ATOM     35  H   UNL     1     -51.418  33.005  23.390  1.00  0.00     0.049 H 
ATOM     36  H   UNL     1     -50.673  31.994  22.103  1.00  0.00     0.049 H 
ATOM     37  H   UNL     1     -52.817  31.123  24.212  1.00  0.00     0.030 H 
ATOM     38  H   UNL     1     -52.666  30.516  22.536  1.00  0.00     0.030 H 
ENDBRANCH   9  29
ENDBRANCH   4   5
ENDBRANCH   1   4
BRANCH   1  39
ATOM     39  C   UNL     1     -45.784  37.413  28.488  1.00  0.00     0.010 A 
ATOM     40  C   UNL     1     -45.605  37.074  29.822  1.00  0.00     0.034 A 
ATOM     41  C   UNL     1     -45.074  38.521  28.003  1.00  0.00    -0.028 A 
ATOM     42  N   UNL     1     -44.816  37.760  30.672  1.00  0.00    -0.262 NA
ATOM     43  H   UNL     1     -46.103  36.215  30.263  1.00  0.00     0.084 H 
ATOM     44  C   UNL     1     -44.245  39.267  28.855  1.00  0.00     0.066 A 
ATOM     45  H   UNL     1     -45.185  38.768  26.953  1.00  0.00     0.065 H 
ATOM     46  C   UNL     1     -44.158  38.839  30.174  1.00  0.00     0.051 A 
ATOM     47  H   UNL     1     -43.564  39.342  30.928  1.00  0.00     0.086 H 
BRANCH  44  48
ATOM     48  N   UNL     1     -43.534  40.415  28.378  1.00  0.00    -0.300 N 
ATOM     49  C   UNL     1     -42.466  41.020  29.028  1.00  0.00     0.012 A 
ATOM     50  C   UNL     1     -43.755  41.138  27.201  1.00  0.00     0.150 A 
ATOM     51  C   UNL     1     -42.018  42.090  28.289  1.00  0.00    -0.031 A 
ATOM     52  H   UNL     1     -42.076  40.638  29.961  1.00  0.00     0.082 H 
ATOM     53  C   UNL     1     -42.829  42.177  27.136  1.00  0.00     0.061 A 
ATOM     54  N   UNL     1     -44.706  40.904  26.274  1.00  0.00    -0.218 NA
ATOM     55  H   UNL     1     -41.188  42.733  28.551  1.00  0.00     0.065 H 
ATOM     56  C   UNL     1     -42.890  43.025  26.020  1.00  0.00     0.136 A 
ATOM     57  C   UNL     1     -44.668  41.776  25.256  1.00  0.00     0.120 A 
ATOM     58  N   UNL     1     -43.827  42.809  25.082  1.00  0.00    -0.219 NA
ATOM     59  H   UNL     1     -45.408  41.631  24.476  1.00  0.00     0.106 H 
BRANCH  56  60
ATOM     60  N   UNL     1     -42.039  44.104  25.829  1.00  0.00    -0.383 N 
ATOM     61  H   UNL     1     -41.442  43.948  25.024  1.00  0.00     0.158 HD
ATOM     62  H   UNL     1     -42.477  45.012  25.894  1.00  0.00     0.158 HD
ENDBRANCH  56  60
ENDBRANCH  44  48
ENDBRANCH   1  39
TORSDOF 9
ENDMDL
