MODEL 1
REMARK VINA RESULT:     -10.4      0.000      0.000
REMARK SMILES O=C(NCc1ccc2cc(CNCC3CC3)[nH]c2c1)c1cc(=O)n2ccccc2n1
REMARK SMILES IDX 5 1 6 2 7 3 8 4 9 5 10 6 17 7 18 8 19 9 4 15 3 18 1 19 2 20
REMARK SMILES IDX 20 22 21 23 30 24 22 25 29 27 23 28 24 29 28 30 25 31 27 32
REMARK SMILES IDX 26 34 11 38 12 41 13 43 14 46 15 47 16 48
REMARK H PARENT 6 10 7 11 9 12 17 13 19 14 4 16 4 17 3 21 21 26 28 33 25 35
REMARK H PARENT 27 36 26 37 11 39 11 40 12 42 13 44 13 45 14 49 15 50 15 51
REMARK H PARENT 16 52 16 53
REMARK Flexibility Score: inf
ROOT
ATOM      1  C   UNL     1     -48.114  34.578  26.477  1.00  0.00    -0.027 A 
ATOM      2  C   UNL     1     -46.878  34.669  25.825  1.00  0.00    -0.057 A 
ATOM      3  C   UNL     1     -46.374  33.598  25.076  1.00  0.00    -0.052 A 
ATOM      4  C   UNL     1     -47.128  32.415  24.970  1.00  0.00    -0.000 A 
ATOM      5  C   UNL     1     -46.930  31.170  24.310  1.00  0.00    -0.032 A 
ATOM      6  C   UNL     1     -48.029  30.373  24.560  1.00  0.00     0.030 A 
ATOM      7  N   UNL     1     -48.883  31.101  25.355  1.00  0.00    -0.357 N 
ATOM      8  C   UNL     1     -48.360  32.346  25.618  1.00  0.00     0.046 A 
ATOM      9  C   UNL     1     -48.881  33.405  26.370  1.00  0.00    -0.033 A 
ATOM     10  H   UNL     1     -46.291  35.582  25.894  1.00  0.00     0.063 H 
ATOM     11  H   UNL     1     -45.412  33.683  24.580  1.00  0.00     0.063 H 
ATOM     12  H   UNL     1     -46.070  30.890  23.716  1.00  0.00     0.065 H 
ATOM     13  H   UNL     1     -49.783  30.764  25.669  1.00  0.00     0.166 HD
ATOM     14  H   UNL     1     -49.849  33.324  26.854  1.00  0.00     0.065 H 
ENDROOT
BRANCH   1  15
ATOM     15  C   UNL     1     -48.650  35.755  27.251  1.00  0.00     0.043 C 
ATOM     16  H   UNL     1     -49.504  36.207  26.732  1.00  0.00     0.054 H 
ATOM     17  H   UNL     1     -49.011  35.444  28.238  1.00  0.00     0.054 H 
BRANCH  15  18
ATOM     18  N   UNL     1     -47.633  36.756  27.429  1.00  0.00    -0.347 N 
ATOM     19  O   UNL     1     -47.024  36.103  29.543  1.00  0.00    -0.268 OA
ATOM     20  C   UNL     1     -46.883  36.839  28.574  1.00  0.00     0.270 C 
ATOM     21  H   UNL     1     -47.412  37.403  26.678  1.00  0.00     0.164 HD
BRANCH  20  22
ATOM     22  C   UNL     1     -45.856  37.943  28.513  1.00  0.00     0.136 A 
ATOM     23  C   UNL     1     -45.016  38.033  29.546  1.00  0.00     0.035 A 
ATOM     24  N   UNL     1     -45.844  38.776  27.417  1.00  0.00    -0.225 NA
ATOM     25  C   UNL     1     -44.001  39.092  29.528  1.00  0.00     0.258 A 
ATOM     26  H   UNL     1     -45.036  37.371  30.402  1.00  0.00     0.071 H 
ATOM     27  C   UNL     1     -44.945  39.712  27.405  1.00  0.00     0.140 A 
ATOM     28  O   UNL     1     -43.222  39.182  30.476  1.00  0.00    -0.269 OA
ATOM     29  N   UNL     1     -44.010  39.919  28.414  1.00  0.00    -0.268 N 
ATOM     30  C   UNL     1     -44.894  40.639  26.239  1.00  0.00    -0.019 A 
ATOM     31  C   UNL     1     -43.077  40.946  28.324  1.00  0.00     0.014 A 
ATOM     32  C   UNL     1     -43.978  41.613  26.197  1.00  0.00    -0.057 A 
ATOM     33  H   UNL     1     -45.619  40.486  25.448  1.00  0.00     0.066 H 
ATOM     34  C   UNL     1     -43.038  41.775  27.274  1.00  0.00    -0.045 A 
ATOM     35  H   UNL     1     -42.376  41.050  29.149  1.00  0.00     0.082 H 
ATOM     36  H   UNL     1     -43.927  42.297  25.357  1.00  0.00     0.062 H 
ATOM     37  H   UNL     1     -42.305  42.573  27.215  1.00  0.00     0.064 H 
ENDBRANCH  20  22
ENDBRANCH  15  18
ENDBRANCH   1  15
BRANCH   6  38
ATOM     38  C   UNL     1     -48.355  28.984  24.141  1.00  0.00     0.036 C 
ATOM     39  H   UNL     1     -47.427  28.400  24.107  1.00  0.00     0.049 H 
ATOM     40  H   UNL     1     -48.787  28.994  23.133  1.00  0.00     0.049 H 
BRANCH  38  41
ATOM     41  N   UNL     1     -49.293  28.399  25.096  1.00  0.00    -0.311 NA
ATOM     42  H   UNL     1     -49.923  27.784  24.580  1.00  0.00     0.123 HD
BRANCH  41  43
ATOM     43  C   UNL     1     -48.583  27.615  26.101  1.00  0.00    -0.002 C 
ATOM     44  H   UNL     1     -47.780  28.200  26.563  1.00  0.00     0.043 H 
ATOM     45  H   UNL     1     -49.273  27.296  26.892  1.00  0.00     0.043 H 
BRANCH  43  46
ATOM     46  C   UNL     1     -47.989  26.425  25.411  1.00  0.00    -0.029 C 
ATOM     47  C   UNL     1     -46.516  26.129  25.540  1.00  0.00    -0.049 C 
ATOM     48  C   UNL     1     -47.523  25.229  26.203  1.00  0.00    -0.049 C 
ATOM     49  H   UNL     1     -48.446  26.242  24.444  1.00  0.00     0.032 H 
ATOM     50  H   UNL     1     -45.907  26.760  26.176  1.00  0.00     0.027 H 
ATOM     51  H   UNL     1     -45.996  25.749  24.667  1.00  0.00     0.027 H 
ATOM     52  H   UNL     1     -47.606  25.265  27.284  1.00  0.00     0.027 H 
ATOM     53  H   UNL     1     -47.689  24.246  25.778  1.00  0.00     0.027 H 
ENDBRANCH  43  46
ENDBRANCH  41  43
ENDBRANCH  38  41
ENDBRANCH   6  38
TORSDOF 7
ENDMDL
MODEL 2
REMARK VINA RESULT:     -10.1      1.654      2.242
REMARK SMILES O=C(NCc1ccc2cc(CNCC3CC3)[nH]c2c1)c1cc(=O)n2ccccc2n1
REMARK SMILES IDX 5 1 6 2 7 3 8 4 9 5 10 6 17 7 18 8 19 9 4 15 3 18 1 19 2 20
REMARK SMILES IDX 20 22 21 23 30 24 22 25 29 27 23 28 24 29 28 30 25 31 27 32
REMARK SMILES IDX 26 34 11 38 12 41 13 43 14 46 15 47 16 48
REMARK H PARENT 6 10 7 11 9 12 17 13 19 14 4 16 4 17 3 21 21 26 28 33 25 35
REMARK H PARENT 27 36 26 37 11 39 11 40 12 42 13 44 13 45 14 49 15 50 15 51
REMARK H PARENT 16 52 16 53
REMARK Flexibility Score: inf
ROOT
ATOM      1  C   UNL     1     -47.826  35.318  26.717  1.00  0.00    -0.027 A 
ATOM      2  C   UNL     1     -46.582  35.155  26.095  1.00  0.00    -0.057 A 
ATOM      3  C   UNL     1     -46.258  33.970  25.423  1.00  0.00    -0.052 A 
ATOM      4  C   UNL     1     -47.204  32.930  25.363  1.00  0.00    -0.000 A 
ATOM      5  C   UNL     1     -47.213  31.632  24.781  1.00  0.00    -0.032 A 
ATOM      6  C   UNL     1     -48.438  31.053  25.045  1.00  0.00     0.030 A 
ATOM      7  N   UNL     1     -49.166  31.964  25.774  1.00  0.00    -0.357 N 
ATOM      8  C   UNL     1     -48.440  33.114  25.980  1.00  0.00     0.046 A 
ATOM      9  C   UNL     1     -48.783  34.291  26.655  1.00  0.00    -0.033 A 
ATOM     10  H   UNL     1     -45.846  35.956  26.128  1.00  0.00     0.063 H 
ATOM     11  H   UNL     1     -45.287  33.858  24.949  1.00  0.00     0.063 H 
ATOM     12  H   UNL     1     -46.405  31.173  24.227  1.00  0.00     0.065 H 
ATOM     13  H   UNL     1     -50.117  31.806  26.081  1.00  0.00     0.166 HD
ATOM     14  H   UNL     1     -49.758  34.406  27.117  1.00  0.00     0.065 H 
ENDROOT
BRANCH   1  15
ATOM     15  C   UNL     1     -48.163  36.615  27.407  1.00  0.00     0.043 C 
ATOM     16  H   UNL     1     -49.050  37.077  26.958  1.00  0.00     0.054 H 
ATOM     17  H   UNL     1     -48.398  36.446  28.465  1.00  0.00     0.054 H 
BRANCH  15  18
ATOM     18  N   UNL     1     -47.064  37.539  27.325  1.00  0.00    -0.347 N 
ATOM     19  O   UNL     1     -48.232  39.367  28.072  1.00  0.00    -0.268 OA
ATOM     20  C   UNL     1     -47.189  38.856  27.682  1.00  0.00     0.270 C 
ATOM     21  H   UNL     1     -46.143  37.218  27.040  1.00  0.00     0.164 HD
BRANCH  20  22
ATOM     22  C   UNL     1     -45.894  39.618  27.545  1.00  0.00     0.136 A 
ATOM     23  C   UNL     1     -45.712  40.283  26.402  1.00  0.00     0.035 A 
ATOM     24  N   UNL     1     -44.993  39.585  28.586  1.00  0.00    -0.225 NA
ATOM     25  C   UNL     1     -44.465  41.037  26.226  1.00  0.00     0.258 A 
ATOM     26  H   UNL     1     -46.428  40.301  25.591  1.00  0.00     0.071 H 
ATOM     27  C   UNL     1     -43.891  40.253  28.426  1.00  0.00     0.140 A 
ATOM     28  O   UNL     1     -44.289  41.653  25.176  1.00  0.00    -0.269 OA
ATOM     29  N   UNL     1     -43.574  40.987  27.289  1.00  0.00    -0.268 N 
ATOM     30  C   UNL     1     -42.886  40.245  29.527  1.00  0.00    -0.019 A 
ATOM     31  C   UNL     1     -42.370  41.678  27.197  1.00  0.00     0.014 A 
ATOM     32  C   UNL     1     -41.742  40.925  29.392  1.00  0.00    -0.057 A 
ATOM     33  H   UNL     1     -43.125  39.676  30.417  1.00  0.00     0.066 H 
ATOM     34  C   UNL     1     -41.472  41.666  28.189  1.00  0.00    -0.045 A 
ATOM     35  H   UNL     1     -42.188  42.231  26.279  1.00  0.00     0.082 H 
ATOM     36  H   UNL     1     -40.998  40.931  30.183  1.00  0.00     0.062 H 
ATOM     37  H   UNL     1     -40.536  42.209  28.106  1.00  0.00     0.064 H 
ENDBRANCH  20  22
ENDBRANCH  15  18
ENDBRANCH   1  15
BRANCH   6  38
ATOM     38  C   UNL     1     -48.992  29.717  24.697  1.00  0.00     0.036 C 
ATOM     39  H   UNL     1     -49.412  29.764  23.685  1.00  0.00     0.049 H 
ATOM     40  H   UNL     1     -49.803  29.462  25.391  1.00  0.00     0.049 H 
BRANCH  38  41
ATOM     41  N   UNL     1     -47.928  28.720  24.765  1.00  0.00    -0.311 NA
ATOM     42  H   UNL     1     -47.357  28.925  25.585  1.00  0.00     0.123 HD
BRANCH  41  43
ATOM     43  C   UNL     1     -48.487  27.379  24.902  1.00  0.00    -0.002 C 
ATOM     44  H   UNL     1     -49.568  27.419  25.079  1.00  0.00     0.043 H 
ATOM     45  H   UNL     1     -48.310  26.798  23.988  1.00  0.00     0.043 H 
BRANCH  43  46
ATOM     46  C   UNL     1     -47.821  26.728  26.076  1.00  0.00    -0.029 C 
ATOM     47  C   UNL     1     -48.183  25.318  26.470  1.00  0.00    -0.049 C 
ATOM     48  C   UNL     1     -46.831  25.607  25.875  1.00  0.00    -0.049 C 
ATOM     49  H   UNL     1     -47.629  27.431  26.879  1.00  0.00     0.032 H 
ATOM     50  H   UNL     1     -48.894  24.770  25.863  1.00  0.00     0.027 H 
ATOM     51  H   UNL     1     -48.230  25.083  27.527  1.00  0.00     0.027 H 
ATOM     52  H   UNL     1     -46.636  25.270  24.863  1.00  0.00     0.027 H 
ATOM     53  H   UNL     1     -45.967  25.574  26.528  1.00  0.00     0.027 H 
ENDBRANCH  43  46
ENDBRANCH  41  43
ENDBRANCH  38  41
ENDBRANCH   6  38
TORSDOF 7
ENDMDL
MODEL 3
REMARK VINA RESULT:      -9.6      2.284      3.622
REMARK SMILES O=C(NCc1ccc2cc(CNCC3CC3)[nH]c2c1)c1cc(=O)n2ccccc2n1
REMARK SMILES IDX 5 1 6 2 7 3 8 4 9 5 10 6 17 7 18 8 19 9 4 15 3 18 1 19 2 20
REMARK SMILES IDX 20 22 21 23 30 24 22 25 29 27 23 28 24 29 28 30 25 31 27 32
REMARK SMILES IDX 26 34 11 38 12 41 13 43 14 46 15 47 16 48
REMARK H PARENT 6 10 7 11 9 12 17 13 19 14 4 16 4 17 3 21 21 26 28 33 25 35
REMARK H PARENT 27 36 26 37 11 39 11 40 12 42 13 44 13 45 14 49 15 50 15 51
REMARK H PARENT 16 52 16 53
REMARK Flexibility Score: inf
ROOT
ATOM      1  C   UNL     1     -46.305  36.211  28.288  1.00  0.00    -0.027 A 
ATOM      2  C   UNL     1     -47.690  36.257  28.086  1.00  0.00    -0.057 A 
ATOM      3  C   UNL     1     -48.319  35.399  27.174  1.00  0.00    -0.052 A 
ATOM      4  C   UNL     1     -47.544  34.469  26.457  1.00  0.00    -0.000 A 
ATOM      5  C   UNL     1     -47.842  33.475  25.483  1.00  0.00    -0.032 A 
ATOM      6  C   UNL     1     -46.661  32.853  25.132  1.00  0.00     0.030 A 
ATOM      7  N   UNL     1     -45.658  33.447  25.863  1.00  0.00    -0.357 N 
ATOM      8  C   UNL     1     -46.169  34.430  26.677  1.00  0.00     0.046 A 
ATOM      9  C   UNL     1     -45.523  35.278  27.585  1.00  0.00    -0.033 A 
ATOM     10  H   UNL     1     -48.299  36.967  28.643  1.00  0.00     0.063 H 
ATOM     11  H   UNL     1     -49.393  35.450  27.027  1.00  0.00     0.063 H 
ATOM     12  H   UNL     1     -48.820  33.243  25.083  1.00  0.00     0.065 H 
ATOM     13  H   UNL     1     -44.689  33.164  25.819  1.00  0.00     0.166 HD
ATOM     14  H   UNL     1     -44.451  35.216  27.742  1.00  0.00     0.065 H 
ENDROOT
BRANCH   1  15
ATOM     15  C   UNL     1     -45.657  37.121  29.298  1.00  0.00     0.043 C 
ATOM     16  H   UNL     1     -46.406  37.558  29.968  1.00  0.00     0.054 H 
ATOM     17  H   UNL     1     -44.954  36.567  29.932  1.00  0.00     0.054 H 
BRANCH  15  18
ATOM     18  N   UNL     1     -44.942  38.184  28.644  1.00  0.00    -0.347 N 
ATOM     19  O   UNL     1     -46.738  39.600  28.455  1.00  0.00    -0.268 OA
ATOM     20  C   UNL     1     -45.549  39.359  28.283  1.00  0.00     0.270 C 
ATOM     21  H   UNL     1     -43.943  38.104  28.476  1.00  0.00     0.164 HD
BRANCH  20  22
ATOM     22  C   UNL     1     -44.589  40.334  27.647  1.00  0.00     0.136 A 
ATOM     23  C   UNL     1     -43.461  40.582  28.317  1.00  0.00     0.035 A 
ATOM     24  N   UNL     1     -44.923  40.899  26.437  1.00  0.00    -0.225 NA
ATOM     25  C   UNL     1     -42.499  41.525  27.735  1.00  0.00     0.258 A 
ATOM     26  H   UNL     1     -43.210  40.131  29.268  1.00  0.00     0.071 H 
ATOM     27  C   UNL     1     -44.069  41.732  25.926  1.00  0.00     0.140 A 
ATOM     28  O   UNL     1     -41.457  41.760  28.345  1.00  0.00    -0.269 OA
ATOM     29  N   UNL     1     -42.860  42.081  26.516  1.00  0.00    -0.268 N 
ATOM     30  C   UNL     1     -44.390  42.369  24.616  1.00  0.00    -0.019 A 
ATOM     31  C   UNL     1     -41.998  42.983  25.900  1.00  0.00     0.014 A 
ATOM     32  C   UNL     1     -43.529  43.231  24.064  1.00  0.00    -0.057 A 
ATOM     33  H   UNL     1     -45.331  42.103  24.149  1.00  0.00     0.066 H 
ATOM     34  C   UNL     1     -42.292  43.551  24.725  1.00  0.00    -0.045 A 
ATOM     35  H   UNL     1     -41.069  43.210  26.419  1.00  0.00     0.082 H 
ATOM     36  H   UNL     1     -43.746  43.705  23.112  1.00  0.00     0.062 H 
ATOM     37  H   UNL     1     -41.613  44.254  24.255  1.00  0.00     0.064 H 
ENDBRANCH  20  22
ENDBRANCH  15  18
ENDBRANCH   1  15
BRANCH   6  38
ATOM     38  C   UNL     1     -46.371  31.764  24.161  1.00  0.00     0.036 C 
ATOM     39  H   UNL     1     -45.291  31.575  24.156  1.00  0.00     0.049 H 
ATOM     40  H   UNL     1     -46.665  32.081  23.152  1.00  0.00     0.049 H 
BRANCH  38  41
ATOM     41  N   UNL     1     -47.100  30.561  24.552  1.00  0.00    -0.311 NA
ATOM     42  H   UNL     1     -47.972  30.853  24.996  1.00  0.00     0.123 HD
BRANCH  41  43
ATOM     43  C   UNL     1     -47.414  29.746  23.383  1.00  0.00    -0.002 C 
ATOM     44  H   UNL     1     -46.505  29.492  22.825  1.00  0.00     0.043 H 
ATOM     45  H   UNL     1     -47.899  28.812  23.690  1.00  0.00     0.043 H 
BRANCH  43  46
ATOM     46  C   UNL     1     -48.323  30.547  22.503  1.00  0.00    -0.029 C 
ATOM     47  C   UNL     1     -48.035  30.673  21.027  1.00  0.00    -0.049 C 
ATOM     48  C   UNL     1     -49.215  29.865  21.494  1.00  0.00    -0.049 C 
ATOM     49  H   UNL     1     -48.711  31.426  23.006  1.00  0.00     0.032 H 
ATOM     50  H   UNL     1     -47.190  30.138  20.610  1.00  0.00     0.027 H 
ATOM     51  H   UNL     1     -48.232  31.628  20.552  1.00  0.00     0.027 H 
ATOM     52  H   UNL     1     -49.162  28.786  21.409  1.00  0.00     0.027 H 
ATOM     53  H   UNL     1     -50.207  30.273  21.342  1.00  0.00     0.027 H 
ENDBRANCH  43  46
ENDBRANCH  41  43
ENDBRANCH  38  41
ENDBRANCH   6  38
TORSDOF 7
ENDMDL
MODEL 4
REMARK VINA RESULT:      -9.5      2.928     11.105
REMARK SMILES O=C(NCc1ccc2cc(CNCC3CC3)[nH]c2c1)c1cc(=O)n2ccccc2n1
REMARK SMILES IDX 5 1 6 2 7 3 8 4 9 5 10 6 17 7 18 8 19 9 4 15 3 18 1 19 2 20
REMARK SMILES IDX 20 22 21 23 30 24 22 25 29 27 23 28 24 29 28 30 25 31 27 32
REMARK SMILES IDX 26 34 11 38 12 41 13 43 14 46 15 47 16 48
REMARK H PARENT 6 10 7 11 9 12 17 13 19 14 4 16 4 17 3 21 21 26 28 33 25 35
REMARK H PARENT 27 36 26 37 11 39 11 40 12 42 13 44 13 45 14 49 15 50 15 51
REMARK H PARENT 16 52 16 53
REMARK Flexibility Score: inf
ROOT
ATOM      1  C   UNL     1     -46.773  33.661  25.758  1.00  0.00    -0.027 A 
ATOM      2  C   UNL     1     -48.108  34.021  25.981  1.00  0.00    -0.057 A 
ATOM      3  C   UNL     1     -48.454  34.951  26.969  1.00  0.00    -0.052 A 
ATOM      4  C   UNL     1     -47.439  35.541  27.745  1.00  0.00    -0.000 A 
ATOM      5  C   UNL     1     -47.428  36.495  28.800  1.00  0.00    -0.032 A 
ATOM      6  C   UNL     1     -46.117  36.699  29.180  1.00  0.00     0.030 A 
ATOM      7  N   UNL     1     -45.337  35.892  28.386  1.00  0.00    -0.357 N 
ATOM      8  C   UNL     1     -46.115  35.179  27.504  1.00  0.00     0.046 A 
ATOM      9  C   UNL     1     -45.750  34.253  26.520  1.00  0.00    -0.033 A 
ATOM     10  H   UNL     1     -48.899  33.576  25.380  1.00  0.00     0.063 H 
ATOM     11  H   UNL     1     -49.494  35.215  27.131  1.00  0.00     0.063 H 
ATOM     12  H   UNL     1     -48.293  36.979  29.235  1.00  0.00     0.065 H 
ATOM     13  H   UNL     1     -44.327  35.863  28.435  1.00  0.00     0.166 HD
ATOM     14  H   UNL     1     -44.708  33.999  26.350  1.00  0.00     0.065 H 
ENDROOT
BRANCH   1  15
ATOM     15  C   UNL     1     -46.423  32.683  24.668  1.00  0.00     0.043 C 
ATOM     16  H   UNL     1     -46.729  33.066  23.687  1.00  0.00     0.054 H 
ATOM     17  H   UNL     1     -45.340  32.521  24.619  1.00  0.00     0.054 H 
BRANCH  15  18
ATOM     18  N   UNL     1     -47.066  31.416  24.892  1.00  0.00    -0.347 N 
ATOM     19  O   UNL     1     -48.194  31.362  22.895  1.00  0.00    -0.268 OA
ATOM     20  C   UNL     1     -47.900  30.846  23.966  1.00  0.00     0.270 C 
ATOM     21  H   UNL     1     -46.873  30.885  25.737  1.00  0.00     0.164 HD
BRANCH  20  22
ATOM     22  C   UNL     1     -48.423  29.501  24.410  1.00  0.00     0.136 A 
ATOM     23  C   UNL     1     -49.741  29.315  24.318  1.00  0.00     0.035 A 
ATOM     24  N   UNL     1     -47.528  28.563  24.873  1.00  0.00    -0.225 NA
ATOM     25  C   UNL     1     -50.293  28.022  24.739  1.00  0.00     0.258 A 
ATOM     26  H   UNL     1     -50.435  30.061  23.951  1.00  0.00     0.071 H 
ATOM     27  C   UNL     1     -48.020  27.421  25.245  1.00  0.00     0.140 A 
ATOM     28  O   UNL     1     -51.507  27.841  24.657  1.00  0.00    -0.269 OA
ATOM     29  N   UNL     1     -49.371  27.094  25.203  1.00  0.00    -0.268 N 
ATOM     30  C   UNL     1     -47.089  26.374  25.755  1.00  0.00    -0.019 A 
ATOM     31  C   UNL     1     -49.817  25.844  25.619  1.00  0.00     0.014 A 
ATOM     32  C   UNL     1     -47.566  25.187  26.144  1.00  0.00    -0.057 A 
ATOM     33  H   UNL     1     -46.034  26.620  25.792  1.00  0.00     0.066 H 
ATOM     34  C   UNL     1     -48.976  24.910  26.076  1.00  0.00    -0.045 A 
ATOM     35  H   UNL     1     -50.887  25.658  25.559  1.00  0.00     0.082 H 
ATOM     36  H   UNL     1     -46.903  24.413  26.518  1.00  0.00     0.062 H 
ATOM     37  H   UNL     1     -49.335  23.939  26.398  1.00  0.00     0.064 H 
ENDBRANCH  20  22
ENDBRANCH  15  18
ENDBRANCH   1  15
BRANCH   6  38
ATOM     38  C   UNL     1     -45.518  37.566  30.230  1.00  0.00     0.036 C 
ATOM     39  H   UNL     1     -44.974  36.933  30.940  1.00  0.00     0.049 H 
ATOM     40  H   UNL     1     -46.314  38.085  30.778  1.00  0.00     0.049 H 
BRANCH  38  41
ATOM     41  N   UNL     1     -44.616  38.529  29.604  1.00  0.00    -0.311 NA
ATOM     42  H   UNL     1     -43.845  38.009  29.184  1.00  0.00     0.123 HD
BRANCH  41  43
ATOM     43  C   UNL     1     -45.306  39.279  28.560  1.00  0.00    -0.002 C 
ATOM     44  H   UNL     1     -46.067  38.661  28.069  1.00  0.00     0.043 H 
ATOM     45  H   UNL     1     -45.802  40.158  28.988  1.00  0.00     0.043 H 
BRANCH  43  46
ATOM     46  C   UNL     1     -44.281  39.692  27.547  1.00  0.00    -0.029 C 
ATOM     47  C   UNL     1     -44.700  40.430  26.300  1.00  0.00    -0.049 C 
ATOM     48  C   UNL     1     -43.920  41.146  27.369  1.00  0.00    -0.049 C 
ATOM     49  H   UNL     1     -43.489  38.959  27.444  1.00  0.00     0.032 H 
ATOM     50  H   UNL     1     -45.743  40.697  26.173  1.00  0.00     0.027 H 
ATOM     51  H   UNL     1     -44.189  40.192  25.374  1.00  0.00     0.027 H 
ATOM     52  H   UNL     1     -44.437  41.882  27.973  1.00  0.00     0.027 H 
ATOM     53  H   UNL     1     -42.882  41.387  27.170  1.00  0.00     0.027 H 
ENDBRANCH  43  46
ENDBRANCH  41  43
ENDBRANCH  38  41
ENDBRANCH   6  38
TORSDOF 7
ENDMDL
MODEL 5
REMARK VINA RESULT:      -9.4      1.946      2.748
REMARK SMILES O=C(NCc1ccc2cc(CNCC3CC3)[nH]c2c1)c1cc(=O)n2ccccc2n1
REMARK SMILES IDX 5 1 6 2 7 3 8 4 9 5 10 6 17 7 18 8 19 9 4 15 3 18 1 19 2 20
REMARK SMILES IDX 20 22 21 23 30 24 22 25 29 27 23 28 24 29 28 30 25 31 27 32
REMARK SMILES IDX 26 34 11 38 12 41 13 43 14 46 15 47 16 48
REMARK H PARENT 6 10 7 11 9 12 17 13 19 14 4 16 4 17 3 21 21 26 28 33 25 35
REMARK H PARENT 27 36 26 37 11 39 11 40 12 42 13 44 13 45 14 49 15 50 15 51
REMARK H PARENT 16 52 16 53
REMARK Flexibility Score: inf
ROOT
ATOM      1  C   UNL     1     -47.395  36.472  27.661  1.00  0.00    -0.027 A 
ATOM      2  C   UNL     1     -46.088  35.970  27.691  1.00  0.00    -0.057 A 
ATOM      3  C   UNL     1     -45.802  34.667  27.263  1.00  0.00    -0.052 A 
ATOM      4  C   UNL     1     -46.847  33.854  26.787  1.00  0.00    -0.000 A 
ATOM      5  C   UNL     1     -46.916  32.524  26.285  1.00  0.00    -0.032 A 
ATOM      6  C   UNL     1     -48.230  32.257  25.959  1.00  0.00     0.030 A 
ATOM      7  N   UNL     1     -48.956  33.387  26.252  1.00  0.00    -0.357 N 
ATOM      8  C   UNL     1     -48.140  34.373  26.755  1.00  0.00     0.046 A 
ATOM      9  C   UNL     1     -48.445  35.672  27.177  1.00  0.00    -0.033 A 
ATOM     10  H   UNL     1     -45.273  36.594  28.050  1.00  0.00     0.063 H 
ATOM     11  H   UNL     1     -44.784  34.292  27.296  1.00  0.00     0.063 H 
ATOM     12  H   UNL     1     -46.087  31.836  26.178  1.00  0.00     0.065 H 
ATOM     13  H   UNL     1     -49.950  33.475  26.085  1.00  0.00     0.166 HD
ATOM     14  H   UNL     1     -49.461  36.050  27.130  1.00  0.00     0.065 H 
ENDROOT
BRANCH   1  15
ATOM     15  C   UNL     1     -47.673  37.887  28.097  1.00  0.00     0.043 C 
ATOM     16  H   UNL     1     -48.578  38.274  27.615  1.00  0.00     0.054 H 
ATOM     17  H   UNL     1     -47.846  37.938  29.179  1.00  0.00     0.054 H 
BRANCH  15  18
ATOM     18  N   UNL     1     -46.568  38.749  27.769  1.00  0.00    -0.347 N 
ATOM     19  O   UNL     1     -47.707  40.028  26.242  1.00  0.00    -0.268 OA
ATOM     20  C   UNL     1     -46.684  39.772  26.865  1.00  0.00     0.270 C 
ATOM     21  H   UNL     1     -45.677  38.645  28.246  1.00  0.00     0.164 HD
BRANCH  20  22
ATOM     22  C   UNL     1     -45.404  40.559  26.716  1.00  0.00     0.136 A 
ATOM     23  C   UNL     1     -44.496  40.407  27.683  1.00  0.00     0.035 A 
ATOM     24  N   UNL     1     -45.249  41.369  25.614  1.00  0.00    -0.225 NA
ATOM     25  C   UNL     1     -43.237  41.154  27.579  1.00  0.00     0.258 A 
ATOM     26  H   UNL     1     -44.630  39.766  28.544  1.00  0.00     0.071 H 
ATOM     27  C   UNL     1     -44.135  42.028  25.526  1.00  0.00     0.140 A 
ATOM     28  O   UNL     1     -42.394  41.021  28.465  1.00  0.00    -0.269 OA
ATOM     29  N   UNL     1     -43.107  41.964  26.460  1.00  0.00    -0.268 N 
ATOM     30  C   UNL     1     -43.923  42.920  24.350  1.00  0.00    -0.019 A 
ATOM     31  C   UNL     1     -41.940  42.703  26.290  1.00  0.00     0.014 A 
ATOM     32  C   UNL     1     -42.784  43.611  24.231  1.00  0.00    -0.057 A 
ATOM     33  H   UNL     1     -44.719  42.976  23.617  1.00  0.00     0.066 H 
ATOM     34  C   UNL     1     -41.757  43.501  25.232  1.00  0.00    -0.045 A 
ATOM     35  H   UNL     1     -41.178  42.605  27.060  1.00  0.00     0.082 H 
ATOM     36  H   UNL     1     -42.613  44.265  23.382  1.00  0.00     0.062 H 
ATOM     37  H   UNL     1     -40.843  44.073  25.110  1.00  0.00     0.064 H 
ENDBRANCH  20  22
ENDBRANCH  15  18
ENDBRANCH   1  15
BRANCH   6  38
ATOM     38  C   UNL     1     -48.882  31.036  25.413  1.00  0.00     0.036 C 
ATOM     39  H   UNL     1     -48.661  30.969  24.341  1.00  0.00     0.049 H 
ATOM     40  H   UNL     1     -49.970  31.114  25.531  1.00  0.00     0.049 H 
BRANCH  38  41
ATOM     41  N   UNL     1     -48.373  29.862  26.116  1.00  0.00    -0.311 NA
ATOM     42  H   UNL     1     -48.743  29.879  27.066  1.00  0.00     0.123 HD
BRANCH  41  43
ATOM     43  C   UNL     1     -48.816  28.636  25.458  1.00  0.00    -0.002 C 
ATOM     44  H   UNL     1     -49.891  28.670  25.246  1.00  0.00     0.043 H 
ATOM     45  H   UNL     1     -48.283  28.499  24.510  1.00  0.00     0.043 H 
BRANCH  43  46
ATOM     46  C   UNL     1     -48.535  27.496  26.389  1.00  0.00    -0.029 C 
ATOM     47  C   UNL     1     -49.317  26.211  26.275  1.00  0.00    -0.049 C 
ATOM     48  C   UNL     1     -47.864  26.241  25.888  1.00  0.00    -0.049 C 
ATOM     49  H   UNL     1     -48.288  27.835  27.389  1.00  0.00     0.032 H 
ATOM     50  H   UNL     1     -50.049  26.111  25.481  1.00  0.00     0.027 H 
ATOM     51  H   UNL     1     -49.587  25.698  27.191  1.00  0.00     0.027 H 
ATOM     52  H   UNL     1     -47.614  26.178  24.835  1.00  0.00     0.027 H 
ATOM     53  H   UNL     1     -47.150  25.755  26.543  1.00  0.00     0.027 H 
ENDBRANCH  43  46
ENDBRANCH  41  43
ENDBRANCH  38  41
ENDBRANCH   6  38
TORSDOF 7
ENDMDL
MODEL 6
REMARK VINA RESULT:      -9.3      1.808      2.559
REMARK SMILES O=C(NCc1ccc2cc(CNCC3CC3)[nH]c2c1)c1cc(=O)n2ccccc2n1
REMARK SMILES IDX 5 1 6 2 7 3 8 4 9 5 10 6 17 7 18 8 19 9 4 15 3 18 1 19 2 20
REMARK SMILES IDX 20 22 21 23 30 24 22 25 29 27 23 28 24 29 28 30 25 31 27 32
REMARK SMILES IDX 26 34 11 38 12 41 13 43 14 46 15 47 16 48
REMARK H PARENT 6 10 7 11 9 12 17 13 19 14 4 16 4 17 3 21 21 26 28 33 25 35
REMARK H PARENT 27 36 26 37 11 39 11 40 12 42 13 44 13 45 14 49 15 50 15 51
REMARK H PARENT 16 52 16 53
REMARK Flexibility Score: inf
ROOT
ATOM      1  C   UNL     1     -46.604  34.770  27.458  1.00  0.00    -0.027 A 
ATOM      2  C   UNL     1     -47.851  35.328  27.149  1.00  0.00    -0.057 A 
ATOM      3  C   UNL     1     -48.846  34.574  26.513  1.00  0.00    -0.052 A 
ATOM      4  C   UNL     1     -48.589  33.229  26.188  1.00  0.00    -0.000 A 
ATOM      5  C   UNL     1     -49.346  32.200  25.562  1.00  0.00    -0.032 A 
ATOM      6  C   UNL     1     -48.566  31.063  25.516  1.00  0.00     0.030 A 
ATOM      7  N   UNL     1     -47.358  31.377  26.093  1.00  0.00    -0.357 N 
ATOM      8  C   UNL     1     -47.347  32.687  26.512  1.00  0.00     0.046 A 
ATOM      9  C   UNL     1     -46.341  33.424  27.148  1.00  0.00    -0.033 A 
ATOM     10  H   UNL     1     -48.062  36.365  27.403  1.00  0.00     0.063 H 
ATOM     11  H   UNL     1     -49.805  35.023  26.277  1.00  0.00     0.063 H 
ATOM     12  H   UNL     1     -50.357  32.288  25.185  1.00  0.00     0.065 H 
ATOM     13  H   UNL     1     -46.604  30.715  26.214  1.00  0.00     0.166 HD
ATOM     14  H   UNL     1     -45.387  32.970  27.396  1.00  0.00     0.065 H 
ENDROOT
BRANCH   1  15
ATOM     15  C   UNL     1     -45.562  35.592  28.171  1.00  0.00     0.043 C 
ATOM     16  H   UNL     1     -45.747  35.604  29.251  1.00  0.00     0.054 H 
ATOM     17  H   UNL     1     -44.562  35.166  28.028  1.00  0.00     0.054 H 
BRANCH  15  18
ATOM     18  N   UNL     1     -45.558  36.945  27.685  1.00  0.00    -0.347 N 
ATOM     19  O   UNL     1     -44.792  37.895  29.628  1.00  0.00    -0.268 OA
ATOM     20  C   UNL     1     -45.153  37.999  28.462  1.00  0.00     0.270 C 
ATOM     21  H   UNL     1     -45.813  37.146  26.722  1.00  0.00     0.164 HD
BRANCH  20  22
ATOM     22  C   UNL     1     -45.200  39.314  27.723  1.00  0.00     0.136 A 
ATOM     23  C   UNL     1     -46.395  39.701  27.270  1.00  0.00     0.035 A 
ATOM     24  N   UNL     1     -44.032  40.026  27.562  1.00  0.00    -0.225 NA
ATOM     25  C   UNL     1     -46.486  40.973  26.544  1.00  0.00     0.258 A 
ATOM     26  H   UNL     1     -47.306  39.132  27.402  1.00  0.00     0.071 H 
ATOM     27  C   UNL     1     -44.117  41.150  26.920  1.00  0.00     0.140 A 
ATOM     28  O   UNL     1     -47.583  41.337  26.123  1.00  0.00    -0.269 OA
ATOM     29  N   UNL     1     -45.295  41.670  26.396  1.00  0.00    -0.268 N 
ATOM     30  C   UNL     1     -42.878  41.955  26.722  1.00  0.00    -0.019 A 
ATOM     31  C   UNL     1     -45.302  42.886  25.720  1.00  0.00     0.014 A 
ATOM     32  C   UNL     1     -42.934  43.118  26.065  1.00  0.00    -0.057 A 
ATOM     33  H   UNL     1     -41.955  41.557  27.127  1.00  0.00     0.066 H 
ATOM     34  C   UNL     1     -44.185  43.602  25.545  1.00  0.00    -0.045 A 
ATOM     35  H   UNL     1     -46.258  43.232  25.336  1.00  0.00     0.082 H 
ATOM     36  H   UNL     1     -42.042  43.717  25.911  1.00  0.00     0.062 H 
ATOM     37  H   UNL     1     -44.202  44.549  25.017  1.00  0.00     0.064 H 
ENDBRANCH  20  22
ENDBRANCH  15  18
ENDBRANCH   1  15
BRANCH   6  38
ATOM     38  C   UNL     1     -48.833  29.707  24.966  1.00  0.00     0.036 C 
ATOM     39  H   UNL     1     -48.495  29.677  23.923  1.00  0.00     0.049 H 
ATOM     40  H   UNL     1     -49.912  29.509  24.979  1.00  0.00     0.049 H 
BRANCH  38  41
ATOM     41  N   UNL     1     -48.120  28.713  25.764  1.00  0.00    -0.311 NA
ATOM     42  H   UNL     1     -47.846  29.154  26.642  1.00  0.00     0.123 HD
BRANCH  41  43
ATOM     43  C   UNL     1     -48.982  27.572  26.056  1.00  0.00    -0.002 C 
ATOM     44  H   UNL     1     -49.138  27.462  27.135  1.00  0.00     0.043 H 
ATOM     45  H   UNL     1     -49.961  27.703  25.580  1.00  0.00     0.043 H 
BRANCH  43  46
ATOM     46  C   UNL     1     -48.301  26.345  25.531  1.00  0.00    -0.029 C 
ATOM     47  C   UNL     1     -46.840  26.105  25.817  1.00  0.00    -0.049 C 
ATOM     48  C   UNL     1     -47.883  25.237  26.467  1.00  0.00    -0.049 C 
ATOM     49  H   UNL     1     -48.664  26.064  24.548  1.00  0.00     0.032 H 
ATOM     50  H   UNL     1     -46.306  26.808  26.446  1.00  0.00     0.027 H 
ATOM     51  H   UNL     1     -46.235  25.666  25.032  1.00  0.00     0.027 H 
ATOM     52  H   UNL     1     -48.066  25.365  27.528  1.00  0.00     0.027 H 
ATOM     53  H   UNL     1     -47.989  24.217  26.119  1.00  0.00     0.027 H 
ENDBRANCH  43  46
ENDBRANCH  41  43
ENDBRANCH  38  41
ENDBRANCH   6  38
TORSDOF 7
ENDMDL
MODEL 7
REMARK VINA RESULT:      -9.3      2.504      4.662
REMARK SMILES O=C(NCc1ccc2cc(CNCC3CC3)[nH]c2c1)c1cc(=O)n2ccccc2n1
REMARK SMILES IDX 5 1 6 2 7 3 8 4 9 5 10 6 17 7 18 8 19 9 4 15 3 18 1 19 2 20
REMARK SMILES IDX 20 22 21 23 30 24 22 25 29 27 23 28 24 29 28 30 25 31 27 32
REMARK SMILES IDX 26 34 11 38 12 41 13 43 14 46 15 47 16 48
REMARK H PARENT 6 10 7 11 9 12 17 13 19 14 4 16 4 17 3 21 21 26 28 33 25 35
REMARK H PARENT 27 36 26 37 11 39 11 40 12 42 13 44 13 45 14 49 15 50 15 51
REMARK H PARENT 16 52 16 53
REMARK Flexibility Score: inf
ROOT
ATOM      1  C   UNL     1     -45.775  37.649  28.282  1.00  0.00    -0.027 A 
ATOM      2  C   UNL     1     -47.104  37.934  27.942  1.00  0.00    -0.057 A 
ATOM      3  C   UNL     1     -47.917  36.973  27.328  1.00  0.00    -0.052 A 
ATOM      4  C   UNL     1     -47.391  35.697  27.058  1.00  0.00    -0.000 A 
ATOM      5  C   UNL     1     -47.918  34.514  26.466  1.00  0.00    -0.032 A 
ATOM      6  C   UNL     1     -46.925  33.556  26.469  1.00  0.00     0.030 A 
ATOM      7  N   UNL     1     -45.813  34.127  27.043  1.00  0.00    -0.357 N 
ATOM      8  C   UNL     1     -46.071  35.427  27.411  1.00  0.00     0.046 A 
ATOM      9  C   UNL     1     -45.243  36.373  28.026  1.00  0.00    -0.033 A 
ATOM     10  H   UNL     1     -47.522  38.916  28.155  1.00  0.00     0.063 H 
ATOM     11  H   UNL     1     -48.944  37.212  27.068  1.00  0.00     0.063 H 
ATOM     12  H   UNL     1     -48.919  34.384  26.078  1.00  0.00     0.065 H 
ATOM     13  H   UNL     1     -44.944  33.634  27.195  1.00  0.00     0.166 HD
ATOM     14  H   UNL     1     -44.221  36.129  28.298  1.00  0.00     0.065 H 
ENDROOT
BRANCH   1  15
ATOM     15  C   UNL     1     -44.930  38.689  28.971  1.00  0.00     0.043 C 
ATOM     16  H   UNL     1     -45.413  39.038  29.890  1.00  0.00     0.054 H 
ATOM     17  H   UNL     1     -43.959  38.273  29.264  1.00  0.00     0.054 H 
BRANCH  15  18
ATOM     18  N   UNL     1     -44.703  39.817  28.108  1.00  0.00    -0.347 N 
ATOM     19  O   UNL     1     -42.778  40.523  29.139  1.00  0.00    -0.268 OA
ATOM     20  C   UNL     1     -43.621  40.645  28.258  1.00  0.00     0.270 C 
ATOM     21  H   UNL     1     -45.324  39.998  27.325  1.00  0.00     0.164 HD
BRANCH  20  22
ATOM     22  C   UNL     1     -43.577  41.733  27.214  1.00  0.00     0.136 A 
ATOM     23  C   UNL     1     -42.372  42.054  26.738  1.00  0.00     0.035 A 
ATOM     24  N   UNL     1     -44.758  42.320  26.817  1.00  0.00    -0.225 NA
ATOM     25  C   UNL     1     -42.282  43.108  25.720  1.00  0.00     0.258 A 
ATOM     26  H   UNL     1     -41.450  41.585  27.058  1.00  0.00     0.071 H 
ATOM     27  C   UNL     1     -44.675  43.251  25.917  1.00  0.00     0.140 A 
ATOM     28  O   UNL     1     -41.176  43.410  25.276  1.00  0.00    -0.269 OA
ATOM     29  N   UNL     1     -43.486  43.683  25.339  1.00  0.00    -0.268 N 
ATOM     30  C   UNL     1     -45.929  43.914  25.459  1.00  0.00    -0.019 A 
ATOM     31  C   UNL     1     -43.483  44.688  24.378  1.00  0.00     0.014 A 
ATOM     32  C   UNL     1     -45.875  44.877  24.532  1.00  0.00    -0.057 A 
ATOM     33  H   UNL     1     -46.860  43.584  25.904  1.00  0.00     0.066 H 
ATOM     34  C   UNL     1     -44.613  45.280  23.971  1.00  0.00    -0.045 A 
ATOM     35  H   UNL     1     -42.518  44.976  23.969  1.00  0.00     0.082 H 
ATOM     36  H   UNL     1     -46.777  45.372  24.186  1.00  0.00     0.062 H 
ATOM     37  H   UNL     1     -44.598  46.063  23.221  1.00  0.00     0.064 H 
ENDBRANCH  20  22
ENDBRANCH  15  18
ENDBRANCH   1  15
BRANCH   6  38
ATOM     38  C   UNL     1     -46.906  32.155  25.970  1.00  0.00     0.036 C 
ATOM     39  H   UNL     1     -45.950  31.695  26.250  1.00  0.00     0.049 H 
ATOM     40  H   UNL     1     -46.977  32.152  24.876  1.00  0.00     0.049 H 
BRANCH  38  41
ATOM     41  N   UNL     1     -48.021  31.417  26.558  1.00  0.00    -0.311 NA
ATOM     42  H   UNL     1     -48.681  32.096  26.937  1.00  0.00     0.123 HD
BRANCH  41  43
ATOM     43  C   UNL     1     -48.697  30.612  25.546  1.00  0.00    -0.002 C 
ATOM     44  H   UNL     1     -48.833  29.580  25.890  1.00  0.00     0.043 H 
ATOM     45  H   UNL     1     -49.685  31.032  25.324  1.00  0.00     0.043 H 
BRANCH  43  46
ATOM     46  C   UNL     1     -47.837  30.612  24.319  1.00  0.00    -0.029 C 
ATOM     47  C   UNL     1     -47.559  29.323  23.586  1.00  0.00    -0.049 C 
ATOM     48  C   UNL     1     -48.440  30.368  22.957  1.00  0.00    -0.049 C 
ATOM     49  H   UNL     1     -47.023  31.325  24.390  1.00  0.00     0.032 H 
ATOM     50  H   UNL     1     -48.029  28.410  23.934  1.00  0.00     0.027 H 
ATOM     51  H   UNL     1     -46.568  29.180  23.171  1.00  0.00     0.027 H 
ATOM     52  H   UNL     1     -49.504  30.170  22.895  1.00  0.00     0.027 H 
ATOM     53  H   UNL     1     -48.045  30.935  22.123  1.00  0.00     0.027 H 
ENDBRANCH  43  46
ENDBRANCH  41  43
ENDBRANCH  38  41
ENDBRANCH   6  38
TORSDOF 7
ENDMDL
