MODEL 1
REMARK VINA RESULT:     -10.7      0.000      0.000
REMARK SMILES O=C(NCc1ccc2cc(CNCC3CCC3)[nH]c2n1)c1cc(=O)n2ccccc2n1
REMARK SMILES IDX 5 1 6 2 7 3 8 4 9 5 10 6 18 7 19 8 20 9 4 14 3 17 1 18 2 19
REMARK SMILES IDX 21 21 22 22 31 23 23 24 30 26 24 27 25 28 29 29 26 30 28 31
REMARK SMILES IDX 27 33 11 37 12 40 13 42 14 45 15 46 17 47 16 49
REMARK H PARENT 6 10 7 11 9 12 18 13 4 15 4 16 3 20 22 25 29 32 26 34 28 35
REMARK H PARENT 27 36 11 38 11 39 12 41 13 43 13 44 14 48 15 50 15 51 17 52
REMARK H PARENT 17 53 16 54 16 55
REMARK Flexibility Score: inf
ROOT
ATOM      1  C   UNL     1     -47.953  35.084  26.863  1.00  0.00     0.062 A 
ATOM      2  C   UNL     1     -46.805  35.136  26.065  1.00  0.00    -0.038 A 
ATOM      3  C   UNL     1     -46.441  34.026  25.298  1.00  0.00    -0.049 A 
ATOM      4  C   UNL     1     -47.263  32.894  25.370  1.00  0.00     0.019 A 
ATOM      5  C   UNL     1     -47.268  31.600  24.784  1.00  0.00    -0.030 A 
ATOM      6  C   UNL     1     -48.368  30.912  25.270  1.00  0.00     0.031 A 
ATOM      7  N   UNL     1     -49.033  31.767  26.121  1.00  0.00    -0.342 N 
ATOM      8  C   UNL     1     -48.375  32.964  26.199  1.00  0.00     0.137 A 
ATOM      9  N   UNL     1     -48.773  34.001  26.957  1.00  0.00    -0.233 NA
ATOM     10  H   UNL     1     -46.193  36.033  26.035  1.00  0.00     0.064 H 
ATOM     11  H   UNL     1     -45.557  34.043  24.671  1.00  0.00     0.063 H 
ATOM     12  H   UNL     1     -46.542  31.206  24.083  1.00  0.00     0.065 H 
ATOM     13  H   UNL     1     -49.881  31.565  26.628  1.00  0.00     0.168 HD
ENDROOT
BRANCH   1  14
ATOM     14  C   UNL     1     -48.315  36.310  27.682  1.00  0.00     0.060 C 
ATOM     15  H   UNL     1     -49.243  36.750  27.301  1.00  0.00     0.056 H 
ATOM     16  H   UNL     1     -48.468  36.025  28.729  1.00  0.00     0.056 H 
BRANCH  14  17
ATOM     17  N   UNL     1     -47.292  37.325  27.644  1.00  0.00    -0.345 N 
ATOM     18  O   UNL     1     -46.475  36.933  29.744  1.00  0.00    -0.268 OA
ATOM     19  C   UNL     1     -46.443  37.557  28.690  1.00  0.00     0.270 C 
ATOM     20  H   UNL     1     -47.203  37.885  26.800  1.00  0.00     0.164 HD
BRANCH  19  21
ATOM     21  C   UNL     1     -45.457  38.667  28.414  1.00  0.00     0.136 A 
ATOM     22  C   UNL     1     -45.659  39.371  27.298  1.00  0.00     0.035 A 
ATOM     23  N   UNL     1     -44.433  38.886  29.305  1.00  0.00    -0.225 NA
ATOM     24  C   UNL     1     -44.727  40.462  26.986  1.00  0.00     0.258 A 
ATOM     25  H   UNL     1     -46.468  39.191  26.603  1.00  0.00     0.071 H 
ATOM     26  C   UNL     1     -43.612  39.851  29.026  1.00  0.00     0.140 A 
ATOM     27  O   UNL     1     -44.905  41.116  25.959  1.00  0.00    -0.269 OA
ATOM     28  N   UNL     1     -43.703  40.662  27.900  1.00  0.00    -0.268 N 
ATOM     29  C   UNL     1     -42.486  40.124  29.964  1.00  0.00    -0.019 A 
ATOM     30  C   UNL     1     -42.780  41.677  27.673  1.00  0.00     0.014 A 
ATOM     31  C   UNL     1     -41.622  41.113  29.703  1.00  0.00    -0.057 A 
ATOM     32  H   UNL     1     -42.408  39.497  30.843  1.00  0.00     0.066 H 
ATOM     33  C   UNL     1     -41.772  41.917  28.521  1.00  0.00    -0.045 A 
ATOM     34  H   UNL     1     -42.913  42.272  26.772  1.00  0.00     0.082 H 
ATOM     35  H   UNL     1     -40.797  41.326  30.375  1.00  0.00     0.062 H 
ATOM     36  H   UNL     1     -41.058  42.712  28.333  1.00  0.00     0.064 H 
ENDBRANCH  19  21
ENDBRANCH  14  17
ENDBRANCH   1  14
BRANCH   6  37
ATOM     37  C   UNL     1     -48.863  29.536  24.995  1.00  0.00     0.036 C 
ATOM     38  H   UNL     1     -48.523  28.872  25.800  1.00  0.00     0.049 H 
ATOM     39  H   UNL     1     -49.957  29.502  25.031  1.00  0.00     0.049 H 
BRANCH  37  40
ATOM     40  N   UNL     1     -48.338  29.014  23.736  1.00  0.00    -0.311 NA
ATOM     41  H   UNL     1     -49.043  29.135  23.012  1.00  0.00     0.123 HD
BRANCH  40  42
ATOM     42  C   UNL     1     -47.955  27.599  23.779  1.00  0.00    -0.002 C 
ATOM     43  H   UNL     1     -48.719  26.959  23.324  1.00  0.00     0.043 H 
ATOM     44  H   UNL     1     -47.060  27.490  23.154  1.00  0.00     0.043 H 
BRANCH  42  45
ATOM     45  C   UNL     1     -47.636  27.128  25.192  1.00  0.00    -0.029 C 
ATOM     46  C   UNL     1     -48.535  25.982  25.736  1.00  0.00    -0.049 C 
ATOM     47  C   UNL     1     -46.443  26.148  25.368  1.00  0.00    -0.049 C 
ATOM     48  H   UNL     1     -47.596  27.961  25.908  1.00  0.00     0.032 H 
ATOM     49  C   UNL     1     -47.281  25.437  26.450  1.00  0.00    -0.053 C 
ATOM     50  H   UNL     1     -48.929  25.306  24.968  1.00  0.00     0.027 H 
ATOM     51  H   UNL     1     -49.354  26.292  26.390  1.00  0.00     0.027 H 
ATOM     52  H   UNL     1     -46.234  25.521  24.494  1.00  0.00     0.027 H 
ATOM     53  H   UNL     1     -45.508  26.596  25.715  1.00  0.00     0.027 H 
ATOM     54  H   UNL     1     -47.189  24.348  26.485  1.00  0.00     0.027 H 
ATOM     55  H   UNL     1     -47.136  25.841  27.458  1.00  0.00     0.027 H 
ENDBRANCH  42  45
ENDBRANCH  40  42
ENDBRANCH  37  40
ENDBRANCH   6  37
TORSDOF 7
ENDMDL
MODEL 2
REMARK VINA RESULT:     -10.5      1.451      2.025
REMARK SMILES O=C(NCc1ccc2cc(CNCC3CCC3)[nH]c2n1)c1cc(=O)n2ccccc2n1
REMARK SMILES IDX 5 1 6 2 7 3 8 4 9 5 10 6 18 7 19 8 20 9 4 14 3 17 1 18 2 19
REMARK SMILES IDX 21 21 22 22 31 23 23 24 30 26 24 27 25 28 29 29 26 30 28 31
REMARK SMILES IDX 27 33 11 37 12 40 13 42 14 45 15 46 17 47 16 49
REMARK H PARENT 6 10 7 11 9 12 18 13 4 15 4 16 3 20 22 25 29 32 26 34 28 35
REMARK H PARENT 27 36 11 38 11 39 12 41 13 43 13 44 14 48 15 50 15 51 17 52
REMARK H PARENT 17 53 16 54 16 55
REMARK Flexibility Score: inf
ROOT
ATOM      1  C   UNL     1     -48.089  34.363  26.513  1.00  0.00     0.062 A 
ATOM      2  C   UNL     1     -46.864  34.474  25.847  1.00  0.00    -0.038 A 
ATOM      3  C   UNL     1     -46.394  33.409  25.075  1.00  0.00    -0.049 A 
ATOM      4  C   UNL     1     -47.192  32.260  25.005  1.00  0.00     0.019 A 
ATOM      5  C   UNL     1     -47.104  30.995  24.363  1.00  0.00    -0.030 A 
ATOM      6  C   UNL     1     -48.233  30.265  24.696  1.00  0.00     0.031 A 
ATOM      7  N   UNL     1     -49.005  31.066  25.508  1.00  0.00    -0.342 N 
ATOM      8  C   UNL     1     -48.388  32.270  25.711  1.00  0.00     0.137 A 
ATOM      9  N   UNL     1     -48.889  33.261  26.468  1.00  0.00    -0.233 NA
ATOM     10  H   UNL     1     -46.274  35.383  25.924  1.00  0.00     0.064 H 
ATOM     11  H   UNL     1     -45.448  33.472  24.549  1.00  0.00     0.063 H 
ATOM     12  H   UNL     1     -46.297  30.649  23.729  1.00  0.00     0.065 H 
ATOM     13  H   UNL     1     -49.898  30.824  25.910  1.00  0.00     0.168 HD
ENDROOT
BRANCH   1  14
ATOM     14  C   UNL     1     -48.566  35.542  27.343  1.00  0.00     0.060 C 
ATOM     15  H   UNL     1     -49.442  35.998  26.870  1.00  0.00     0.056 H 
ATOM     16  H   UNL     1     -48.849  35.199  28.345  1.00  0.00     0.056 H 
BRANCH  14  17
ATOM     17  N   UNL     1     -47.557  36.561  27.490  1.00  0.00    -0.345 N 
ATOM     18  O   UNL     1     -47.016  36.062  29.656  1.00  0.00    -0.268 OA
ATOM     19  C   UNL     1     -46.854  36.741  28.648  1.00  0.00     0.270 C 
ATOM     20  H   UNL     1     -47.365  37.164  26.695  1.00  0.00     0.164 HD
BRANCH  19  21
ATOM     21  C   UNL     1     -45.852  37.867  28.560  1.00  0.00     0.136 A 
ATOM     22  C   UNL     1     -44.997  37.977  29.579  1.00  0.00     0.035 A 
ATOM     23  N   UNL     1     -45.874  38.695  27.462  1.00  0.00    -0.225 NA
ATOM     24  C   UNL     1     -44.003  39.057  29.539  1.00  0.00     0.258 A 
ATOM     25  H   UNL     1     -44.988  37.320  30.438  1.00  0.00     0.071 H 
ATOM     26  C   UNL     1     -44.994  39.647  27.430  1.00  0.00     0.140 A 
ATOM     27  O   UNL     1     -43.211  39.167  30.474  1.00  0.00    -0.269 OA
ATOM     28  N   UNL     1     -44.047  39.877  28.421  1.00  0.00    -0.268 N 
ATOM     29  C   UNL     1     -44.982  40.569  26.258  1.00  0.00    -0.019 A 
ATOM     30  C   UNL     1     -43.136  40.924  28.311  1.00  0.00     0.014 A 
ATOM     31  C   UNL     1     -44.086  41.562  26.197  1.00  0.00    -0.057 A 
ATOM     32  H   UNL     1     -45.717  40.396  25.482  1.00  0.00     0.066 H 
ATOM     33  C   UNL     1     -43.131  41.747  27.256  1.00  0.00    -0.045 A 
ATOM     34  H   UNL     1     -42.424  41.044  29.124  1.00  0.00     0.082 H 
ATOM     35  H   UNL     1     -44.062  42.242  25.352  1.00  0.00     0.062 H 
ATOM     36  H   UNL     1     -42.415  42.559  27.181  1.00  0.00     0.064 H 
ENDBRANCH  19  21
ENDBRANCH  14  17
ENDBRANCH   1  14
BRANCH   6  37
ATOM     37  C   UNL     1     -48.663  28.895  24.306  1.00  0.00     0.036 C 
ATOM     38  H   UNL     1     -49.456  28.976  23.551  1.00  0.00     0.049 H 
ATOM     39  H   UNL     1     -47.847  28.357  23.813  1.00  0.00     0.049 H 
BRANCH  37  40
ATOM     40  N   UNL     1     -49.204  28.154  25.442  1.00  0.00    -0.311 NA
ATOM     41  H   UNL     1     -50.098  28.562  25.704  1.00  0.00     0.123 HD
BRANCH  40  42
ATOM     42  C   UNL     1     -48.336  28.138  26.624  1.00  0.00    -0.002 C 
ATOM     43  H   UNL     1     -47.474  28.803  26.502  1.00  0.00     0.043 H 
ATOM     44  H   UNL     1     -48.920  28.553  27.456  1.00  0.00     0.043 H 
BRANCH  42  45
ATOM     45  C   UNL     1     -47.880  26.732  26.989  1.00  0.00    -0.029 C 
ATOM     46  C   UNL     1     -48.737  25.575  26.404  1.00  0.00    -0.049 C 
ATOM     47  C   UNL     1     -46.693  26.132  26.184  1.00  0.00    -0.049 C 
ATOM     48  H   UNL     1     -47.749  26.607  28.074  1.00  0.00     0.032 H 
ATOM     49  C   UNL     1     -47.426  24.777  26.252  1.00  0.00    -0.053 C 
ATOM     50  H   UNL     1     -49.222  25.804  25.448  1.00  0.00     0.027 H 
ATOM     51  H   UNL     1     -49.477  25.144  27.083  1.00  0.00     0.027 H 
ATOM     52  H   UNL     1     -46.589  26.523  25.165  1.00  0.00     0.027 H 
ATOM     53  H   UNL     1     -45.719  26.168  26.678  1.00  0.00     0.027 H 
ATOM     54  H   UNL     1     -47.352  24.150  25.361  1.00  0.00     0.027 H 
ATOM     55  H   UNL     1     -47.168  24.180  27.134  1.00  0.00     0.027 H 
ENDBRANCH  42  45
ENDBRANCH  40  42
ENDBRANCH  37  40
ENDBRANCH   6  37
TORSDOF 7
ENDMDL
MODEL 3
REMARK VINA RESULT:      -9.9      1.946      3.017
REMARK SMILES O=C(NCc1ccc2cc(CNCC3CCC3)[nH]c2n1)c1cc(=O)n2ccccc2n1
REMARK SMILES IDX 5 1 6 2 7 3 8 4 9 5 10 6 18 7 19 8 20 9 4 14 3 17 1 18 2 19
REMARK SMILES IDX 21 21 22 22 31 23 23 24 30 26 24 27 25 28 29 29 26 30 28 31
REMARK SMILES IDX 27 33 11 37 12 40 13 42 14 45 15 46 17 47 16 49
REMARK H PARENT 6 10 7 11 9 12 18 13 4 15 4 16 3 20 22 25 29 32 26 34 28 35
REMARK H PARENT 27 36 11 38 11 39 12 41 13 43 13 44 14 48 15 50 15 51 17 52
REMARK H PARENT 17 53 16 54 16 55
REMARK Flexibility Score: inf
ROOT
ATOM      1  C   UNL     1     -46.375  35.817  28.218  1.00  0.00     0.062 A 
ATOM      2  C   UNL     1     -47.760  35.905  28.043  1.00  0.00    -0.038 A 
ATOM      3  C   UNL     1     -48.390  35.119  27.075  1.00  0.00    -0.049 A 
ATOM      4  C   UNL     1     -47.584  34.264  26.313  1.00  0.00     0.019 A 
ATOM      5  C   UNL     1     -47.796  33.328  25.266  1.00  0.00    -0.030 A 
ATOM      6  C   UNL     1     -46.568  32.791  24.914  1.00  0.00     0.031 A 
ATOM      7  N   UNL     1     -45.626  33.369  25.736  1.00  0.00    -0.342 N 
ATOM      8  C   UNL     1     -46.221  34.265  26.580  1.00  0.00     0.137 A 
ATOM      9  N   UNL     1     -45.562  34.998  27.495  1.00  0.00    -0.233 NA
ATOM     10  H   UNL     1     -48.352  36.580  28.655  1.00  0.00     0.064 H 
ATOM     11  H   UNL     1     -49.462  35.169  26.922  1.00  0.00     0.063 H 
ATOM     12  H   UNL     1     -48.745  33.075  24.809  1.00  0.00     0.065 H 
ATOM     13  H   UNL     1     -44.636  33.180  25.734  1.00  0.00     0.168 HD
ENDROOT
BRANCH   1  14
ATOM     14  C   UNL     1     -45.728  36.688  29.280  1.00  0.00     0.060 C 
ATOM     15  H   UNL     1     -46.494  37.072  29.963  1.00  0.00     0.056 H 
ATOM     16  H   UNL     1     -45.010  36.095  29.859  1.00  0.00     0.056 H 
BRANCH  14  17
ATOM     17  N   UNL     1     -45.024  37.815  28.721  1.00  0.00    -0.345 N 
ATOM     18  O   UNL     1     -46.842  39.195  28.575  1.00  0.00    -0.268 OA
ATOM     19  C   UNL     1     -45.644  38.993  28.410  1.00  0.00     0.270 C 
ATOM     20  H   UNL     1     -44.025  37.723  28.557  1.00  0.00     0.164 HD
BRANCH  19  21
ATOM     21  C   UNL     1     -44.700  40.024  27.841  1.00  0.00     0.136 A 
ATOM     22  C   UNL     1     -43.605  40.282  28.560  1.00  0.00     0.035 A 
ATOM     23  N   UNL     1     -45.012  40.624  26.643  1.00  0.00    -0.225 NA
ATOM     24  C   UNL     1     -42.656  41.277  28.047  1.00  0.00     0.258 A 
ATOM     25  H   UNL     1     -43.370  39.804  29.501  1.00  0.00     0.071 H 
ATOM     26  C   UNL     1     -44.170  41.502  26.193  1.00  0.00     0.140 A 
ATOM     27  O   UNL     1     -41.644  41.523  28.703  1.00  0.00    -0.269 OA
ATOM     28  N   UNL     1     -42.994  41.868  26.838  1.00  0.00    -0.268 N 
ATOM     29  C   UNL     1     -44.467  42.178  24.898  1.00  0.00    -0.019 A 
ATOM     30  C   UNL     1     -42.143  42.821  26.287  1.00  0.00     0.014 A 
ATOM     31  C   UNL     1     -43.618  43.089  24.408  1.00  0.00    -0.057 A 
ATOM     32  H   UNL     1     -45.382  41.899  24.390  1.00  0.00     0.066 H 
ATOM     33  C   UNL     1     -42.416  43.423  25.124  1.00  0.00    -0.045 A 
ATOM     34  H   UNL     1     -41.240  43.057  26.846  1.00  0.00     0.082 H 
ATOM     35  H   UNL     1     -43.818  43.591  23.467  1.00  0.00     0.062 H 
ATOM     36  H   UNL     1     -41.745  44.165  24.704  1.00  0.00     0.064 H 
ENDBRANCH  19  21
ENDBRANCH  14  17
ENDBRANCH   1  14
BRANCH   6  37
ATOM     37  C   UNL     1     -46.201  31.773  23.893  1.00  0.00     0.036 C 
ATOM     38  H   UNL     1     -46.711  32.017  22.952  1.00  0.00     0.049 H 
ATOM     39  H   UNL     1     -45.131  31.819  23.664  1.00  0.00     0.049 H 
BRANCH  37  40
ATOM     40  N   UNL     1     -46.621  30.432  24.290  1.00  0.00    -0.311 NA
ATOM     41  H   UNL     1     -45.898  30.023  24.877  1.00  0.00     0.123 HD
BRANCH  40  42
ATOM     42  C   UNL     1     -46.881  29.521  23.171  1.00  0.00    -0.002 C 
ATOM     43  H   UNL     1     -47.460  30.008  22.379  1.00  0.00     0.043 H 
ATOM     44  H   UNL     1     -45.909  29.276  22.724  1.00  0.00     0.043 H 
BRANCH  42  45
ATOM     45  C   UNL     1     -47.563  28.235  23.617  1.00  0.00    -0.029 C 
ATOM     46  C   UNL     1     -46.641  27.191  24.307  1.00  0.00    -0.049 C 
ATOM     47  C   UNL     1     -48.360  28.272  24.952  1.00  0.00    -0.049 C 
ATOM     48  H   UNL     1     -48.138  27.767  22.806  1.00  0.00     0.032 H 
ATOM     49  C   UNL     1     -47.835  26.846  25.220  1.00  0.00    -0.053 C 
ATOM     50  H   UNL     1     -45.788  27.620  24.846  1.00  0.00     0.027 H 
ATOM     51  H   UNL     1     -46.284  26.379  23.669  1.00  0.00     0.027 H 
ATOM     52  H   UNL     1     -48.002  29.013  25.676  1.00  0.00     0.027 H 
ATOM     53  H   UNL     1     -49.444  28.365  24.854  1.00  0.00     0.027 H 
ATOM     54  H   UNL     1     -47.589  26.618  26.259  1.00  0.00     0.027 H 
ATOM     55  H   UNL     1     -48.481  26.056  24.822  1.00  0.00     0.027 H 
ENDBRANCH  42  45
ENDBRANCH  40  42
ENDBRANCH  37  40
ENDBRANCH   6  37
TORSDOF 7
ENDMDL
MODEL 4
REMARK VINA RESULT:      -9.8      1.548      2.074
REMARK SMILES O=C(NCc1ccc2cc(CNCC3CCC3)[nH]c2n1)c1cc(=O)n2ccccc2n1
REMARK SMILES IDX 5 1 6 2 7 3 8 4 9 5 10 6 18 7 19 8 20 9 4 14 3 17 1 18 2 19
REMARK SMILES IDX 21 21 22 22 31 23 23 24 30 26 24 27 25 28 29 29 26 30 28 31
REMARK SMILES IDX 27 33 11 37 12 40 13 42 14 45 15 46 17 47 16 49
REMARK H PARENT 6 10 7 11 9 12 18 13 4 15 4 16 3 20 22 25 29 32 26 34 28 35
REMARK H PARENT 27 36 11 38 11 39 12 41 13 43 13 44 14 48 15 50 15 51 17 52
REMARK H PARENT 17 53 16 54 16 55
REMARK Flexibility Score: inf
ROOT
ATOM      1  C   UNL     1     -46.643  34.870  27.673  1.00  0.00     0.062 A 
ATOM      2  C   UNL     1     -47.896  35.429  27.401  1.00  0.00    -0.038 A 
ATOM      3  C   UNL     1     -48.835  34.705  26.662  1.00  0.00    -0.049 A 
ATOM      4  C   UNL     1     -48.464  33.429  26.221  1.00  0.00     0.019 A 
ATOM      5  C   UNL     1     -49.080  32.391  25.471  1.00  0.00    -0.030 A 
ATOM      6  C   UNL     1     -48.174  31.348  25.357  1.00  0.00     0.031 A 
ATOM      7  N   UNL     1     -47.036  31.728  26.033  1.00  0.00    -0.342 N 
ATOM      8  C   UNL     1     -47.191  32.983  26.553  1.00  0.00     0.137 A 
ATOM      9  N   UNL     1     -46.249  33.633  27.259  1.00  0.00    -0.233 NA
ATOM     10  H   UNL     1     -48.147  36.423  27.761  1.00  0.00     0.064 H 
ATOM     11  H   UNL     1     -49.813  35.117  26.440  1.00  0.00     0.063 H 
ATOM     12  H   UNL     1     -50.079  32.403  25.052  1.00  0.00     0.065 H 
ATOM     13  H   UNL     1     -46.196  31.181  26.141  1.00  0.00     0.168 HD
ENDROOT
BRANCH   1  14
ATOM     14  C   UNL     1     -45.650  35.688  28.479  1.00  0.00     0.060 C 
ATOM     15  H   UNL     1     -46.010  35.800  29.507  1.00  0.00     0.056 H 
ATOM     16  H   UNL     1     -44.681  35.177  28.502  1.00  0.00     0.056 H 
BRANCH  14  17
ATOM     17  N   UNL     1     -45.444  37.007  27.933  1.00  0.00    -0.345 N 
ATOM     18  O   UNL     1     -45.983  38.151  29.839  1.00  0.00    -0.268 OA
ATOM     19  C   UNL     1     -45.628  38.146  28.666  1.00  0.00     0.270 C 
ATOM     20  H   UNL     1     -45.146  37.083  26.964  1.00  0.00     0.164 HD
BRANCH  19  21
ATOM     21  C   UNL     1     -45.348  39.404  27.879  1.00  0.00     0.136 A 
ATOM     22  C   UNL     1     -46.393  39.957  27.259  1.00  0.00     0.035 A 
ATOM     23  N   UNL     1     -44.065  39.899  27.847  1.00  0.00    -0.225 NA
ATOM     24  C   UNL     1     -46.171  41.182  26.482  1.00  0.00     0.258 A 
ATOM     25  H   UNL     1     -47.398  39.560  27.291  1.00  0.00     0.071 H 
ATOM     26  C   UNL     1     -43.873  40.982  27.160  1.00  0.00     0.140 A 
ATOM     27  O   UNL     1     -47.128  41.699  25.906  1.00  0.00    -0.269 OA
ATOM     28  N   UNL     1     -44.868  41.660  26.466  1.00  0.00    -0.268 N 
ATOM     29  C   UNL     1     -42.498  41.554  27.097  1.00  0.00    -0.019 A 
ATOM     30  C   UNL     1     -44.580  42.818  25.750  1.00  0.00     0.014 A 
ATOM     31  C   UNL     1     -42.268  42.670  26.395  1.00  0.00    -0.057 A 
ATOM     32  H   UNL     1     -41.717  41.031  27.635  1.00  0.00     0.066 H 
ATOM     33  C   UNL     1     -43.342  43.326  25.698  1.00  0.00    -0.045 A 
ATOM     34  H   UNL     1     -45.408  43.296  25.231  1.00  0.00     0.082 H 
ATOM     35  H   UNL     1     -41.274  43.101  26.338  1.00  0.00     0.062 H 
ATOM     36  H   UNL     1     -43.130  44.230  25.137  1.00  0.00     0.064 H 
ENDBRANCH  19  21
ENDBRANCH  14  17
ENDBRANCH   1  14
BRANCH   6  37
ATOM     37  C   UNL     1     -48.287  30.023  24.689  1.00  0.00     0.036 C 
ATOM     38  H   UNL     1     -49.196  30.014  24.075  1.00  0.00     0.049 H 
ATOM     39  H   UNL     1     -47.460  29.870  23.987  1.00  0.00     0.049 H 
BRANCH  37  40
ATOM     40  N   UNL     1     -48.393  28.936  25.658  1.00  0.00    -0.311 NA
ATOM     41  H   UNL     1     -47.472  28.525  25.791  1.00  0.00     0.123 HD
BRANCH  40  42
ATOM     42  C   UNL     1     -49.327  27.872  25.275  1.00  0.00    -0.002 C 
ATOM     43  H   UNL     1     -50.216  27.865  25.916  1.00  0.00     0.043 H 
ATOM     44  H   UNL     1     -49.686  28.108  24.266  1.00  0.00     0.043 H 
BRANCH  42  45
ATOM     45  C   UNL     1     -48.667  26.500  25.262  1.00  0.00    -0.029 C 
ATOM     46  C   UNL     1     -47.114  26.502  25.321  1.00  0.00    -0.049 C 
ATOM     47  C   UNL     1     -48.623  25.712  26.602  1.00  0.00    -0.049 C 
ATOM     48  H   UNL     1     -49.022  25.877  24.428  1.00  0.00     0.032 H 
ATOM     49  C   UNL     1     -47.218  25.229  26.187  1.00  0.00    -0.053 C 
ATOM     50  H   UNL     1     -46.678  27.356  25.851  1.00  0.00     0.027 H 
ATOM     51  H   UNL     1     -46.603  26.380  24.362  1.00  0.00     0.027 H 
ATOM     52  H   UNL     1     -48.622  26.341  27.500  1.00  0.00     0.027 H 
ATOM     53  H   UNL     1     -49.376  24.930  26.716  1.00  0.00     0.027 H 
ATOM     54  H   UNL     1     -46.487  25.142  26.994  1.00  0.00     0.027 H 
ATOM     55  H   UNL     1     -47.224  24.300  25.606  1.00  0.00     0.027 H 
ENDBRANCH  42  45
ENDBRANCH  40  42
ENDBRANCH  37  40
ENDBRANCH   6  37
TORSDOF 7
ENDMDL
MODEL 5
REMARK VINA RESULT:      -9.8      3.005     11.568
REMARK SMILES O=C(NCc1ccc2cc(CNCC3CCC3)[nH]c2n1)c1cc(=O)n2ccccc2n1
REMARK SMILES IDX 5 1 6 2 7 3 8 4 9 5 10 6 18 7 19 8 20 9 4 14 3 17 1 18 2 19
REMARK SMILES IDX 21 21 22 22 31 23 23 24 30 26 24 27 25 28 29 29 26 30 28 31
REMARK SMILES IDX 27 33 11 37 12 40 13 42 14 45 15 46 17 47 16 49
REMARK H PARENT 6 10 7 11 9 12 18 13 4 15 4 16 3 20 22 25 29 32 26 34 28 35
REMARK H PARENT 27 36 11 38 11 39 12 41 13 43 13 44 14 48 15 50 15 51 17 52
REMARK H PARENT 17 53 16 54 16 55
REMARK Flexibility Score: inf
ROOT
ATOM      1  C   UNL     1     -46.770  33.649  25.691  1.00  0.00     0.062 A 
ATOM      2  C   UNL     1     -48.110  33.955  25.951  1.00  0.00    -0.038 A 
ATOM      3  C   UNL     1     -48.431  34.869  26.958  1.00  0.00    -0.049 A 
ATOM      4  C   UNL     1     -47.371  35.444  27.670  1.00  0.00     0.019 A 
ATOM      5  C   UNL     1     -47.245  36.382  28.730  1.00  0.00    -0.030 A 
ATOM      6  C   UNL     1     -45.897  36.540  29.006  1.00  0.00     0.031 A 
ATOM      7  N   UNL     1     -45.209  35.734  28.126  1.00  0.00    -0.342 N 
ATOM      8  C   UNL     1     -46.083  35.060  27.319  1.00  0.00     0.137 A 
ATOM      9  N   UNL     1     -45.716  34.189  26.363  1.00  0.00    -0.233 NA
ATOM     10  H   UNL     1     -48.905  33.488  25.377  1.00  0.00     0.064 H 
ATOM     11  H   UNL     1     -49.462  35.123  27.178  1.00  0.00     0.063 H 
ATOM     12  H   UNL     1     -48.054  36.885  29.245  1.00  0.00     0.065 H 
ATOM     13  H   UNL     1     -44.207  35.634  28.067  1.00  0.00     0.168 HD
ENDROOT
BRANCH   1  14
ATOM     14  C   UNL     1     -46.462  32.650  24.589  1.00  0.00     0.060 C 
ATOM     15  H   UNL     1     -46.840  33.026  23.632  1.00  0.00     0.056 H 
ATOM     16  H   UNL     1     -45.378  32.513  24.507  1.00  0.00     0.056 H 
BRANCH  14  17
ATOM     17  N   UNL     1     -47.057  31.359  24.828  1.00  0.00    -0.345 N 
ATOM     18  O   UNL     1     -48.245  31.269  22.875  1.00  0.00    -0.268 OA
ATOM     19  C   UNL     1     -47.909  30.764  23.941  1.00  0.00     0.270 C 
ATOM     20  H   UNL     1     -46.824  30.876  25.692  1.00  0.00     0.164 HD
BRANCH  19  21
ATOM     21  C   UNL     1     -48.399  29.415  24.409  1.00  0.00     0.136 A 
ATOM     22  C   UNL     1     -49.717  29.212  24.350  1.00  0.00     0.035 A 
ATOM     23  N   UNL     1     -47.483  28.492  24.858  1.00  0.00    -0.225 NA
ATOM     24  C   UNL     1     -50.242  27.915  24.794  1.00  0.00     0.258 A 
ATOM     25  H   UNL     1     -50.429  29.945  23.995  1.00  0.00     0.071 H 
ATOM     26  C   UNL     1     -47.951  27.347  25.249  1.00  0.00     0.140 A 
ATOM     27  O   UNL     1     -51.456  27.720  24.743  1.00  0.00    -0.269 OA
ATOM     28  N   UNL     1     -49.298  27.003  25.242  1.00  0.00    -0.268 N 
ATOM     29  C   UNL     1     -46.995  26.316  25.744  1.00  0.00    -0.019 A 
ATOM     30  C   UNL     1     -49.719  25.751  25.680  1.00  0.00     0.014 A 
ATOM     31  C   UNL     1     -47.447  25.125  26.155  1.00  0.00    -0.057 A 
ATOM     32  H   UNL     1     -45.943  26.577  25.753  1.00  0.00     0.066 H 
ATOM     33  C   UNL     1     -48.854  24.830  26.122  1.00  0.00    -0.045 A 
ATOM     34  H   UNL     1     -50.788  25.551  25.646  1.00  0.00     0.082 H 
ATOM     35  H   UNL     1     -46.766  24.363  26.518  1.00  0.00     0.062 H 
ATOM     36  H   UNL     1     -49.194  23.857  26.460  1.00  0.00     0.064 H 
ENDBRANCH  19  21
ENDBRANCH  14  17
ENDBRANCH   1  14
BRANCH   6  37
ATOM     37  C   UNL     1     -45.195  37.392  30.004  1.00  0.00     0.036 C 
ATOM     38  H   UNL     1     -45.726  37.322  30.962  1.00  0.00     0.049 H 
ATOM     39  H   UNL     1     -44.188  37.010  30.201  1.00  0.00     0.049 H 
BRANCH  37  40
ATOM     40  N   UNL     1     -45.182  38.796  29.604  1.00  0.00    -0.311 NA
ATOM     41  H   UNL     1     -46.107  39.190  29.763  1.00  0.00     0.123 HD
BRANCH  40  42
ATOM     42  C   UNL     1     -44.815  39.024  28.202  1.00  0.00    -0.002 C 
ATOM     43  H   UNL     1     -44.097  38.276  27.846  1.00  0.00     0.043 H 
ATOM     44  H   UNL     1     -45.723  38.877  27.604  1.00  0.00     0.043 H 
BRANCH  42  45
ATOM     45  C   UNL     1     -44.283  40.431  27.964  1.00  0.00    -0.029 C 
ATOM     46  C   UNL     1     -42.952  40.776  28.688  1.00  0.00    -0.049 C 
ATOM     47  C   UNL     1     -43.519  40.693  26.636  1.00  0.00    -0.049 C 
ATOM     48  H   UNL     1     -45.043  41.200  28.163  1.00  0.00     0.032 H 
ATOM     49  C   UNL     1     -42.576  41.608  27.444  1.00  0.00    -0.053 C 
ATOM     50  H   UNL     1     -42.288  39.921  28.857  1.00  0.00     0.027 H 
ATOM     51  H   UNL     1     -43.051  41.339  29.620  1.00  0.00     0.027 H 
ATOM     52  H   UNL     1     -43.021  39.812  26.215  1.00  0.00     0.027 H 
ATOM     53  H   UNL     1     -44.094  41.186  25.848  1.00  0.00     0.027 H 
ATOM     54  H   UNL     1     -41.523  41.581  27.154  1.00  0.00     0.027 H 
ATOM     55  H   UNL     1     -42.908  42.651  27.494  1.00  0.00     0.027 H 
ENDBRANCH  42  45
ENDBRANCH  40  42
ENDBRANCH  37  40
ENDBRANCH   6  37
TORSDOF 7
ENDMDL
MODEL 6
REMARK VINA RESULT:      -9.3      2.589      4.233
REMARK SMILES O=C(NCc1ccc2cc(CNCC3CCC3)[nH]c2n1)c1cc(=O)n2ccccc2n1
REMARK SMILES IDX 5 1 6 2 7 3 8 4 9 5 10 6 18 7 19 8 20 9 4 14 3 17 1 18 2 19
REMARK SMILES IDX 21 21 22 22 31 23 23 24 30 26 24 27 25 28 29 29 26 30 28 31
REMARK SMILES IDX 27 33 11 37 12 40 13 42 14 45 15 46 17 47 16 49
REMARK H PARENT 6 10 7 11 9 12 18 13 4 15 4 16 3 20 22 25 29 32 26 34 28 35
REMARK H PARENT 27 36 11 38 11 39 12 41 13 43 13 44 14 48 15 50 15 51 17 52
REMARK H PARENT 17 53 16 54 16 55
REMARK Flexibility Score: inf
ROOT
ATOM      1  C   UNL     1     -45.877  37.336  28.162  1.00  0.00     0.062 A 
ATOM      2  C   UNL     1     -47.250  37.587  28.072  1.00  0.00    -0.038 A 
ATOM      3  C   UNL     1     -48.086  36.665  27.437  1.00  0.00    -0.049 A 
ATOM      4  C   UNL     1     -47.491  35.511  26.912  1.00  0.00     0.019 A 
ATOM      5  C   UNL     1     -47.944  34.358  26.215  1.00  0.00    -0.030 A 
ATOM      6  C   UNL     1     -46.846  33.556  25.952  1.00  0.00     0.031 A 
ATOM      7  N   UNL     1     -45.747  34.190  26.488  1.00  0.00    -0.342 N 
ATOM      8  C   UNL     1     -46.118  35.374  27.063  1.00  0.00     0.137 A 
ATOM      9  N   UNL     1     -45.267  36.226  27.663  1.00  0.00    -0.233 NA
ATOM     10  H   UNL     1     -47.674  38.495  28.493  1.00  0.00     0.064 H 
ATOM     11  H   UNL     1     -49.153  36.838  27.356  1.00  0.00     0.063 H 
ATOM     12  H   UNL     1     -48.965  34.138  25.929  1.00  0.00     0.065 H 
ATOM     13  H   UNL     1     -44.796  33.854  26.470  1.00  0.00     0.168 HD
ENDROOT
BRANCH   1  14
ATOM     14  C   UNL     1     -45.003  38.363  28.860  1.00  0.00     0.060 C 
ATOM     15  H   UNL     1     -45.492  38.705  29.778  1.00  0.00     0.056 H 
ATOM     16  H   UNL     1     -44.040  37.911  29.125  1.00  0.00     0.056 H 
BRANCH  14  17
ATOM     17  N   UNL     1     -44.739  39.518  28.038  1.00  0.00    -0.345 N 
ATOM     18  O   UNL     1     -42.998  40.318  29.288  1.00  0.00    -0.268 OA
ATOM     19  C   UNL     1     -43.745  40.413  28.321  1.00  0.00     0.270 C 
ATOM     20  H   UNL     1     -45.317  39.663  27.215  1.00  0.00     0.164 HD
BRANCH  19  21
ATOM     21  C   UNL     1     -43.661  41.536  27.316  1.00  0.00     0.136 A 
ATOM     22  C   UNL     1     -42.439  41.843  26.875  1.00  0.00     0.035 A 
ATOM     23  N   UNL     1     -44.819  42.163  26.918  1.00  0.00    -0.225 NA
ATOM     24  C   UNL     1     -42.305  42.929  25.896  1.00  0.00     0.258 A 
ATOM     25  H   UNL     1     -41.535  41.343  27.194  1.00  0.00     0.071 H 
ATOM     26  C   UNL     1     -44.697  43.122  26.052  1.00  0.00     0.140 A 
ATOM     27  O   UNL     1     -41.183  43.220  25.485  1.00  0.00    -0.269 OA
ATOM     28  N   UNL     1     -43.488  43.545  25.512  1.00  0.00    -0.268 N 
ATOM     29  C   UNL     1     -45.925  43.830  25.593  1.00  0.00    -0.019 A 
ATOM     30  C   UNL     1     -43.442  44.583  24.587  1.00  0.00     0.014 A 
ATOM     31  C   UNL     1     -45.831  44.823  24.701  1.00  0.00    -0.057 A 
ATOM     32  H   UNL     1     -46.871  43.506  26.010  1.00  0.00     0.066 H 
ATOM     33  C   UNL     1     -44.549  45.214  24.178  1.00  0.00    -0.045 A 
ATOM     34  H   UNL     1     -42.462  44.861  24.206  1.00  0.00     0.082 H 
ATOM     35  H   UNL     1     -46.715  45.350  24.355  1.00  0.00     0.062 H 
ATOM     36  H   UNL     1     -44.501  46.022  23.456  1.00  0.00     0.064 H 
ENDBRANCH  19  21
ENDBRANCH  14  17
ENDBRANCH   1  14
BRANCH   6  37
ATOM     37  C   UNL     1     -46.736  32.242  25.262  1.00  0.00     0.036 C 
ATOM     38  H   UNL     1     -46.022  31.615  25.811  1.00  0.00     0.049 H 
ATOM     39  H   UNL     1     -47.688  31.702  25.302  1.00  0.00     0.049 H 
BRANCH  37  40
ATOM     40  N   UNL     1     -46.242  32.387  23.896  1.00  0.00    -0.311 NA
ATOM     41  H   UNL     1     -46.847  33.035  23.396  1.00  0.00     0.123 HD
BRANCH  40  42
ATOM     42  C   UNL     1     -46.178  31.133  23.138  1.00  0.00    -0.002 C 
ATOM     43  H   UNL     1     -46.320  31.302  22.065  1.00  0.00     0.043 H 
ATOM     44  H   UNL     1     -45.158  30.744  23.248  1.00  0.00     0.043 H 
BRANCH  42  45
ATOM     45  C   UNL     1     -47.166  30.095  23.651  1.00  0.00    -0.029 C 
ATOM     46  C   UNL     1     -48.338  29.751  22.691  1.00  0.00    -0.049 C 
ATOM     47  C   UNL     1     -46.758  28.599  23.535  1.00  0.00    -0.049 C 
ATOM     48  H   UNL     1     -47.546  30.343  24.653  1.00  0.00     0.032 H 
ATOM     49  C   UNL     1     -48.233  28.299  23.198  1.00  0.00    -0.053 C 
ATOM     50  H   UNL     1     -48.103  29.860  21.625  1.00  0.00     0.027 H 
ATOM     51  H   UNL     1     -49.285  30.257  22.898  1.00  0.00     0.027 H 
ATOM     52  H   UNL     1     -46.067  28.377  22.714  1.00  0.00     0.027 H 
ATOM     53  H   UNL     1     -46.380  28.139  24.452  1.00  0.00     0.027 H 
ATOM     54  H   UNL     1     -48.401  27.520  22.450  1.00  0.00     0.027 H 
ATOM     55  H   UNL     1     -48.854  28.092  24.077  1.00  0.00     0.027 H 
ENDBRANCH  42  45
ENDBRANCH  40  42
ENDBRANCH  37  40
ENDBRANCH   6  37
TORSDOF 7
ENDMDL
MODEL 7
REMARK VINA RESULT:      -9.2      2.022      2.551
REMARK SMILES O=C(NCc1ccc2cc(CNCC3CCC3)[nH]c2n1)c1cc(=O)n2ccccc2n1
REMARK SMILES IDX 5 1 6 2 7 3 8 4 9 5 10 6 18 7 19 8 20 9 4 14 3 17 1 18 2 19
REMARK SMILES IDX 21 21 22 22 31 23 23 24 30 26 24 27 25 28 29 29 26 30 28 31
REMARK SMILES IDX 27 33 11 37 12 40 13 42 14 45 15 46 17 47 16 49
REMARK H PARENT 6 10 7 11 9 12 18 13 4 15 4 16 3 20 22 25 29 32 26 34 28 35
REMARK H PARENT 27 36 11 38 11 39 12 41 13 43 13 44 14 48 15 50 15 51 17 52
REMARK H PARENT 17 53 16 54 16 55
REMARK Flexibility Score: inf
ROOT
ATOM      1  C   UNL     1     -47.369  35.288  27.447  1.00  0.00     0.062 A 
ATOM      2  C   UNL     1     -46.166  35.011  26.788  1.00  0.00    -0.038 A 
ATOM      3  C   UNL     1     -46.114  33.992  25.835  1.00  0.00    -0.049 A 
ATOM      4  C   UNL     1     -47.295  33.284  25.581  1.00  0.00     0.019 A 
ATOM      5  C   UNL     1     -47.680  32.214  24.728  1.00  0.00    -0.030 A 
ATOM      6  C   UNL     1     -49.021  31.950  24.949  1.00  0.00     0.031 A 
ATOM      7  N   UNL     1     -49.457  32.844  25.901  1.00  0.00    -0.342 N 
ATOM      8  C   UNL     1     -48.426  33.651  26.299  1.00  0.00     0.137 A 
ATOM      9  N   UNL     1     -48.535  34.619  27.225  1.00  0.00    -0.233 NA
ATOM     10  H   UNL     1     -45.270  35.584  27.012  1.00  0.00     0.064 H 
ATOM     11  H   UNL     1     -45.193  33.760  25.311  1.00  0.00     0.063 H 
ATOM     12  H   UNL     1     -47.042  31.687  24.029  1.00  0.00     0.065 H 
ATOM     13  H   UNL     1     -50.392  32.914  26.271  1.00  0.00     0.168 HD
ENDROOT
BRANCH   1  14
ATOM     14  C   UNL     1     -47.385  36.403  28.477  1.00  0.00     0.060 C 
ATOM     15  H   UNL     1     -48.410  36.573  28.823  1.00  0.00     0.056 H 
ATOM     16  H   UNL     1     -46.768  36.121  29.338  1.00  0.00     0.056 H 
BRANCH  14  17
ATOM     17  N   UNL     1     -46.878  37.648  27.956  1.00  0.00    -0.345 N 
ATOM     18  O   UNL     1     -45.029  37.743  29.300  1.00  0.00    -0.268 OA
ATOM     19  C   UNL     1     -45.726  38.224  28.414  1.00  0.00     0.270 C 
ATOM     20  H   UNL     1     -47.402  38.107  27.216  1.00  0.00     0.164 HD
BRANCH  19  21
ATOM     21  C   UNL     1     -45.398  39.521  27.714  1.00  0.00     0.136 A 
ATOM     22  C   UNL     1     -46.423  40.161  27.146  1.00  0.00     0.035 A 
ATOM     23  N   UNL     1     -44.095  39.961  27.702  1.00  0.00    -0.225 NA
ATOM     24  C   UNL     1     -46.154  41.427  26.454  1.00  0.00     0.258 A 
ATOM     25  H   UNL     1     -47.444  39.806  27.162  1.00  0.00     0.071 H 
ATOM     26  C   UNL     1     -43.861  41.081  27.089  1.00  0.00     0.140 A 
ATOM     27  O   UNL     1     -47.092  42.023  25.927  1.00  0.00    -0.269 OA
ATOM     28  N   UNL     1     -44.832  41.848  26.456  1.00  0.00    -0.268 N 
ATOM     29  C   UNL     1     -42.464  41.596  27.051  1.00  0.00    -0.019 A 
ATOM     30  C   UNL     1     -44.499  43.040  25.819  1.00  0.00     0.014 A 
ATOM     31  C   UNL     1     -42.191  42.748  26.426  1.00  0.00    -0.057 A 
ATOM     32  H   UNL     1     -41.701  41.004  27.542  1.00  0.00     0.066 H 
ATOM     33  C   UNL     1     -43.241  43.497  25.790  1.00  0.00    -0.045 A 
ATOM     34  H   UNL     1     -45.310  43.589  25.345  1.00  0.00     0.082 H 
ATOM     35  H   UNL     1     -41.180  43.139  26.389  1.00  0.00     0.062 H 
ATOM     36  H   UNL     1     -42.994  44.428  25.291  1.00  0.00     0.064 H 
ENDBRANCH  19  21
ENDBRANCH  14  17
ENDBRANCH   1  14
BRANCH   6  37
ATOM     37  C   UNL     1     -49.935  30.949  24.335  1.00  0.00     0.036 C 
ATOM     38  H   UNL     1     -49.788  29.983  24.835  1.00  0.00     0.049 H 
ATOM     39  H   UNL     1     -50.982  31.215  24.518  1.00  0.00     0.049 H 
BRANCH  37  40
ATOM     40  N   UNL     1     -49.657  30.761  22.914  1.00  0.00    -0.311 NA
ATOM     41  H   UNL     1     -50.462  31.076  22.378  1.00  0.00     0.123 HD
BRANCH  40  42
ATOM     42  C   UNL     1     -49.356  29.377  22.533  1.00  0.00    -0.002 C 
ATOM     43  H   UNL     1     -49.618  28.672  23.329  1.00  0.00     0.043 H 
ATOM     44  H   UNL     1     -50.007  29.129  21.685  1.00  0.00     0.043 H 
BRANCH  42  45
ATOM     45  C   UNL     1     -47.903  29.194  22.114  1.00  0.00    -0.029 C 
ATOM     46  C   UNL     1     -47.148  30.496  21.726  1.00  0.00    -0.049 C 
ATOM     47  C   UNL     1     -46.847  29.031  23.244  1.00  0.00    -0.049 C 
ATOM     48  H   UNL     1     -47.790  28.433  21.330  1.00  0.00     0.032 H 
ATOM     49  C   UNL     1     -45.893  29.875  22.374  1.00  0.00    -0.053 C 
ATOM     50  H   UNL     1     -47.501  31.399  22.237  1.00  0.00     0.027 H 
ATOM     51  H   UNL     1     -47.075  30.700  20.655  1.00  0.00     0.027 H 
ATOM     52  H   UNL     1     -47.116  29.512  24.192  1.00  0.00     0.027 H 
ATOM     53  H   UNL     1     -46.522  28.008  23.444  1.00  0.00     0.027 H 
ATOM     54  H   UNL     1     -45.244  30.568  22.914  1.00  0.00     0.027 H 
ATOM     55  H   UNL     1     -45.287  29.281  21.681  1.00  0.00     0.027 H 
ENDBRANCH  42  45
ENDBRANCH  40  42
ENDBRANCH  37  40
ENDBRANCH   6  37
TORSDOF 7
ENDMDL
