MODEL 1
REMARK VINA RESULT:     -12.3      0.000      0.000
REMARK SMILES Nc1ncnc2c1ccn2[C@@H]1C[C@H](CCc2ccc3ccc(NCc4ccccc4)nc3c2)[C@@H](O)[C@H]1O
REMARK SMILES IDX 15 1 14 4 13 7 11 8 12 9 36 10 34 14 10 18 2 19 3 20 7 21
REMARK SMILES IDX 4 22 6 23 8 24 5 25 9 27 1 30 37 33 35 35 16 37 17 38 33 39
REMARK SMILES IDX 18 40 32 42 19 44 31 46 20 47 22 48 21 49 23 52 24 54 25 57
REMARK SMILES IDX 26 58 30 59 27 60 29 62 28 64
REMARK H PARENT 15 2 15 3 14 5 14 6 11 11 12 12 12 13 36 15 13 16 34 17 4 26
REMARK H PARENT 8 28 9 29 1 31 1 32 37 34 35 36 17 41 33 43 18 45 20 50 21 51
REMARK H PARENT 23 53 24 55 24 56 26 61 30 63 27 65 29 66 28 67
REMARK Flexibility Score: inf
ROOT
ATOM      1  C   UNL     1     -48.332  35.194  27.242  1.00  0.00    -0.027 C 
ATOM      2  H   UNL     1     -49.340  35.520  26.960  1.00  0.00     0.032 H 
ATOM      3  H   UNL     1     -48.439  34.732  28.231  1.00  0.00     0.032 H 
ENDROOT
BRANCH   1   4
ATOM      4  C   UNL     1     -47.393  36.404  27.356  1.00  0.00    -0.044 C 
ATOM      5  H   UNL     1     -47.977  37.292  27.629  1.00  0.00     0.027 H 
ATOM      6  H   UNL     1     -46.970  36.609  26.364  1.00  0.00     0.027 H 
BRANCH   4   7
ATOM      7  C   UNL     1     -46.250  36.231  28.373  1.00  0.00    -0.010 C 
ATOM      8  C   UNL     1     -44.682  37.813  29.427  1.00  0.00     0.064 C 
ATOM      9  C   UNL     1     -45.059  37.167  28.084  1.00  0.00    -0.024 C 
ATOM     10  C   UNL     1     -46.053  37.936  30.108  1.00  0.00     0.101 C 
ATOM     11  H   UNL     1     -44.038  37.144  30.015  1.00  0.00     0.056 H 
ATOM     12  H   UNL     1     -44.221  36.607  27.657  1.00  0.00     0.029 H 
ATOM     13  H   UNL     1     -45.332  37.942  27.357  1.00  0.00     0.029 H 
ATOM     14  C   UNL     1     -46.705  36.583  29.799  1.00  0.00     0.085 C 
ATOM     15  H   UNL     1     -46.651  38.746  29.674  1.00  0.00     0.065 H 
ATOM     16  H   UNL     1     -45.900  35.192  28.351  1.00  0.00     0.033 H 
ATOM     17  H   UNL     1     -47.790  36.609  29.939  1.00  0.00     0.063 H 
BRANCH   8  18
ATOM     18  N   UNL     1     -43.921  39.041  29.256  1.00  0.00    -0.327 N 
ATOM     19  C   UNL     1     -43.381  42.051  27.463  1.00  0.00     0.136 A 
ATOM     20  N   UNL     1     -44.331  41.985  26.510  1.00  0.00    -0.219 NA
ATOM     21  C   UNL     1     -43.276  41.006  28.391  1.00  0.00     0.061 A 
ATOM     22  C   UNL     1     -45.146  40.911  26.499  1.00  0.00     0.120 A 
ATOM     23  C   UNL     1     -44.179  39.959  28.260  1.00  0.00     0.145 A 
ATOM     24  C   UNL     1     -42.445  40.695  29.501  1.00  0.00    -0.031 A 
ATOM     25  N   UNL     1     -45.145  39.855  27.330  1.00  0.00    -0.218 NA
ATOM     26  H   UNL     1     -45.899  40.900  25.717  1.00  0.00     0.106 H 
ATOM     27  C   UNL     1     -42.855  39.478  30.004  1.00  0.00     0.007 A 
ATOM     28  H   UNL     1     -41.629  41.292  29.885  1.00  0.00     0.065 H 
ATOM     29  H   UNL     1     -42.456  38.897  30.825  1.00  0.00     0.082 H 
BRANCH  19  30
ATOM     30  N   UNL     1     -42.543  43.157  27.452  1.00  0.00    -0.383 N 
ATOM     31  H   UNL     1     -42.069  43.248  28.343  1.00  0.00     0.158 HD
ATOM     32  H   UNL     1     -42.965  43.997  27.081  1.00  0.00     0.158 HD
ENDBRANCH  19  30
ENDBRANCH   8  18
BRANCH  10  33
ATOM     33  O   UNL     1     -45.958  38.131  31.515  1.00  0.00    -0.388 OA
ATOM     34  H   UNL     1     -45.864  37.230  31.892  1.00  0.00     0.211 HD
ENDBRANCH  10  33
BRANCH  14  35
ATOM     35  O   UNL     1     -46.176  35.619  30.723  1.00  0.00    -0.390 OA
ATOM     36  H   UNL     1     -46.632  34.774  30.549  1.00  0.00     0.211 HD
ENDBRANCH  14  35
ENDBRANCH   4   7
ENDBRANCH   1   4
BRANCH   1  37
ATOM     37  C   UNL     1     -47.840  34.139  26.283  1.00  0.00    -0.046 A 
ATOM     38  C   UNL     1     -46.598  34.267  25.656  1.00  0.00    -0.058 A 
ATOM     39  C   UNL     1     -48.621  33.002  26.013  1.00  0.00    -0.033 A 
ATOM     40  C   UNL     1     -46.151  33.274  24.786  1.00  0.00    -0.053 A 
ATOM     41  H   UNL     1     -45.970  35.135  25.842  1.00  0.00     0.063 H 
ATOM     42  C   UNL     1     -48.197  31.997  25.154  1.00  0.00     0.073 A 
ATOM     43  H   UNL     1     -49.596  32.890  26.486  1.00  0.00     0.065 H 
ATOM     44  C   UNL     1     -46.942  32.141  24.534  1.00  0.00     0.000 A 
ATOM     45  H   UNL     1     -45.182  33.389  24.304  1.00  0.00     0.063 H 
ATOM     46  N   UNL     1     -48.987  30.928  24.947  1.00  0.00    -0.231 NA
ATOM     47  C   UNL     1     -46.527  31.129  23.668  1.00  0.00    -0.049 A 
ATOM     48  C   UNL     1     -48.570  29.945  24.124  1.00  0.00     0.126 A 
ATOM     49  C   UNL     1     -47.353  30.027  23.458  1.00  0.00    -0.019 A 
ATOM     50  H   UNL     1     -45.575  31.190  23.149  1.00  0.00     0.063 H 
ATOM     51  H   UNL     1     -47.047  29.245  22.770  1.00  0.00     0.066 H 
BRANCH  48  52
ATOM     52  N   UNL     1     -49.387  28.836  23.854  1.00  0.00    -0.366 N 
ATOM     53  H   UNL     1     -48.918  28.227  23.192  1.00  0.00     0.162 HD
BRANCH  52  54
ATOM     54  C   UNL     1     -49.867  28.082  25.008  1.00  0.00     0.041 C 
ATOM     55  H   UNL     1     -50.204  28.706  25.844  1.00  0.00     0.054 H 
ATOM     56  H   UNL     1     -50.764  27.532  24.694  1.00  0.00     0.054 H 
BRANCH  54  57
ATOM     57  C   UNL     1     -48.830  27.078  25.459  1.00  0.00    -0.029 A 
ATOM     58  C   UNL     1     -47.542  27.086  24.904  1.00  0.00    -0.057 A 
ATOM     59  C   UNL     1     -49.150  26.099  26.412  1.00  0.00    -0.057 A 
ATOM     60  C   UNL     1     -46.591  26.147  25.304  1.00  0.00    -0.062 A 
ATOM     61  H   UNL     1     -47.281  27.826  24.149  1.00  0.00     0.063 H 
ATOM     62  C   UNL     1     -48.197  25.160  26.812  1.00  0.00    -0.062 A 
ATOM     63  H   UNL     1     -50.145  26.065  26.849  1.00  0.00     0.063 H 
ATOM     64  C   UNL     1     -46.917  25.186  26.259  1.00  0.00    -0.062 A 
ATOM     65  H   UNL     1     -45.596  26.164  24.867  1.00  0.00     0.062 H 
ATOM     66  H   UNL     1     -48.452  24.409  27.554  1.00  0.00     0.062 H 
ATOM     67  H   UNL     1     -46.176  24.454  26.570  1.00  0.00     0.062 H 
ENDBRANCH  54  57
ENDBRANCH  52  54
ENDBRANCH  48  52
ENDBRANCH   1  37
TORSDOF 10
ENDMDL
MODEL 2
REMARK VINA RESULT:     -12.1      1.476      2.528
REMARK SMILES Nc1ncnc2c1ccn2[C@@H]1C[C@H](CCc2ccc3ccc(NCc4ccccc4)nc3c2)[C@@H](O)[C@H]1O
REMARK SMILES IDX 15 1 14 4 13 7 11 8 12 9 36 10 34 14 10 18 2 19 3 20 7 21
REMARK SMILES IDX 4 22 6 23 8 24 5 25 9 27 1 30 37 33 35 35 16 37 17 38 33 39
REMARK SMILES IDX 18 40 32 42 19 44 31 46 20 47 22 48 21 49 23 52 24 54 25 57
REMARK SMILES IDX 26 58 30 59 27 60 29 62 28 64
REMARK H PARENT 15 2 15 3 14 5 14 6 11 11 12 12 12 13 36 15 13 16 34 17 4 26
REMARK H PARENT 8 28 9 29 1 31 1 32 37 34 35 36 17 41 33 43 18 45 20 50 21 51
REMARK H PARENT 23 53 24 55 24 56 26 61 30 63 27 65 29 66 28 67
REMARK Flexibility Score: inf
ROOT
ATOM      1  C   UNL     1     -46.457  36.174  26.760  1.00  0.00    -0.027 C 
ATOM      2  H   UNL     1     -45.910  36.558  25.891  1.00  0.00     0.032 H 
ATOM      3  H   UNL     1     -47.177  36.958  27.023  1.00  0.00     0.032 H 
ENDROOT
BRANCH   1   4
ATOM      4  C   UNL     1     -45.499  35.960  27.941  1.00  0.00    -0.044 C 
ATOM      5  H   UNL     1     -44.544  35.569  27.568  1.00  0.00     0.027 H 
ATOM      6  H   UNL     1     -45.917  35.179  28.589  1.00  0.00     0.027 H 
BRANCH   4   7
ATOM      7  C   UNL     1     -45.224  37.224  28.777  1.00  0.00    -0.010 C 
ATOM      8  C   UNL     1     -45.388  39.633  28.285  1.00  0.00     0.064 C 
ATOM      9  C   UNL     1     -44.602  38.358  27.937  1.00  0.00    -0.024 C 
ATOM     10  C   UNL     1     -46.798  39.073  28.525  1.00  0.00     0.101 C 
ATOM     11  H   UNL     1     -45.009  40.085  29.212  1.00  0.00     0.056 H 
ATOM     12  H   UNL     1     -43.536  38.468  28.164  1.00  0.00     0.029 H 
ATOM     13  H   UNL     1     -44.683  38.147  26.863  1.00  0.00     0.029 H 
ATOM     14  C   UNL     1     -46.521  37.812  29.354  1.00  0.00     0.085 C 
ATOM     15  H   UNL     1     -47.292  38.800  27.585  1.00  0.00     0.065 H 
ATOM     16  H   UNL     1     -44.543  36.973  29.598  1.00  0.00     0.033 H 
ATOM     17  H   UNL     1     -47.375  37.127  29.353  1.00  0.00     0.063 H 
BRANCH   8  18
ATOM     18  N   UNL     1     -45.256  40.661  27.264  1.00  0.00    -0.327 N 
ATOM     19  C   UNL     1     -43.216  43.025  25.586  1.00  0.00     0.136 A 
ATOM     20  N   UNL     1     -42.035  42.875  26.216  1.00  0.00    -0.219 NA
ATOM     21  C   UNL     1     -44.304  42.237  25.986  1.00  0.00     0.061 A 
ATOM     22  C   UNL     1     -41.954  41.963  27.204  1.00  0.00     0.120 A 
ATOM     23  C   UNL     1     -44.080  41.339  27.020  1.00  0.00     0.145 A 
ATOM     24  C   UNL     1     -45.665  42.094  25.605  1.00  0.00    -0.031 A 
ATOM     25  N   UNL     1     -42.919  41.153  27.673  1.00  0.00    -0.218 NA
ATOM     26  H   UNL     1     -40.984  41.872  27.683  1.00  0.00     0.106 H 
ATOM     27  C   UNL     1     -46.228  41.129  26.414  1.00  0.00     0.007 A 
ATOM     28  H   UNL     1     -46.181  42.643  24.829  1.00  0.00     0.065 H 
ATOM     29  H   UNL     1     -47.245  40.760  26.449  1.00  0.00     0.082 H 
BRANCH  19  30
ATOM     30  N   UNL     1     -43.285  43.979  24.579  1.00  0.00    -0.383 N 
ATOM     31  H   UNL     1     -44.251  44.159  24.332  1.00  0.00     0.158 HD
ATOM     32  H   UNL     1     -42.647  43.822  23.811  1.00  0.00     0.158 HD
ENDBRANCH  19  30
ENDBRANCH   8  18
BRANCH  10  33
ATOM     33  O   UNL     1     -47.635  39.968  29.248  1.00  0.00    -0.388 OA
ATOM     34  H   UNL     1     -47.700  39.586  30.149  1.00  0.00     0.211 HD
ENDBRANCH  10  33
BRANCH  14  35
ATOM     35  O   UNL     1     -46.300  38.220  30.713  1.00  0.00    -0.390 OA
ATOM     36  H   UNL     1     -45.343  38.140  30.885  1.00  0.00     0.211 HD
ENDBRANCH  14  35
ENDBRANCH   4   7
ENDBRANCH   1   4
BRANCH   1  37
ATOM     37  C   UNL     1     -47.230  34.936  26.380  1.00  0.00    -0.046 A 
ATOM     38  C   UNL     1     -48.592  34.828  26.673  1.00  0.00    -0.058 A 
ATOM     39  C   UNL     1     -46.594  33.874  25.713  1.00  0.00    -0.033 A 
ATOM     40  C   UNL     1     -49.297  33.684  26.299  1.00  0.00    -0.053 A 
ATOM     41  H   UNL     1     -49.114  35.631  27.189  1.00  0.00     0.063 H 
ATOM     42  C   UNL     1     -47.274  32.727  25.327  1.00  0.00     0.073 A 
ATOM     43  H   UNL     1     -45.532  33.938  25.485  1.00  0.00     0.065 H 
ATOM     44  C   UNL     1     -48.646  32.637  25.627  1.00  0.00     0.000 A 
ATOM     45  H   UNL     1     -50.357  33.615  26.536  1.00  0.00     0.063 H 
ATOM     46  N   UNL     1     -46.610  31.752  24.681  1.00  0.00    -0.231 NA
ATOM     47  C   UNL     1     -49.319  31.477  25.239  1.00  0.00    -0.049 A 
ATOM     48  C   UNL     1     -47.272  30.644  24.292  1.00  0.00     0.126 A 
ATOM     49  C   UNL     1     -48.623  30.472  24.573  1.00  0.00    -0.019 A 
ATOM     50  H   UNL     1     -50.375  31.344  25.455  1.00  0.00     0.063 H 
ATOM     51  H   UNL     1     -49.133  29.559  24.286  1.00  0.00     0.066 H 
BRANCH  48  52
ATOM     52  N   UNL     1     -46.600  29.590  23.653  1.00  0.00    -0.366 N 
ATOM     53  H   UNL     1     -45.847  29.262  24.250  1.00  0.00     0.162 HD
BRANCH  52  54
ATOM     54  C   UNL     1     -47.422  28.478  23.188  1.00  0.00     0.041 C 
ATOM     55  H   UNL     1     -48.418  28.772  22.836  1.00  0.00     0.054 H 
ATOM     56  H   UNL     1     -46.931  28.051  22.303  1.00  0.00     0.054 H 
BRANCH  54  57
ATOM     57  C   UNL     1     -47.511  27.400  24.245  1.00  0.00    -0.029 A 
ATOM     58  C   UNL     1     -46.349  26.803  24.753  1.00  0.00    -0.057 A 
ATOM     59  C   UNL     1     -48.759  26.956  24.708  1.00  0.00    -0.057 A 
ATOM     60  C   UNL     1     -46.432  25.793  25.713  1.00  0.00    -0.062 A 
ATOM     61  H   UNL     1     -45.373  27.120  24.392  1.00  0.00     0.063 H 
ATOM     62  C   UNL     1     -48.840  25.947  25.670  1.00  0.00    -0.062 A 
ATOM     63  H   UNL     1     -49.676  27.396  24.322  1.00  0.00     0.063 H 
ATOM     64  C   UNL     1     -47.676  25.367  26.173  1.00  0.00    -0.062 A 
ATOM     65  H   UNL     1     -45.524  25.338  26.100  1.00  0.00     0.062 H 
ATOM     66  H   UNL     1     -49.811  25.612  26.026  1.00  0.00     0.062 H 
ATOM     67  H   UNL     1     -47.740  24.581  26.921  1.00  0.00     0.062 H 
ENDBRANCH  54  57
ENDBRANCH  52  54
ENDBRANCH  48  52
ENDBRANCH   1  37
TORSDOF 10
ENDMDL
MODEL 3
REMARK VINA RESULT:     -11.1      1.780      2.211
REMARK SMILES Nc1ncnc2c1ccn2[C@@H]1C[C@H](CCc2ccc3ccc(NCc4ccccc4)nc3c2)[C@@H](O)[C@H]1O
REMARK SMILES IDX 15 1 14 4 13 7 11 8 12 9 36 10 34 14 10 18 2 19 3 20 7 21
REMARK SMILES IDX 4 22 6 23 8 24 5 25 9 27 1 30 37 33 35 35 16 37 17 38 33 39
REMARK SMILES IDX 18 40 32 42 19 44 31 46 20 47 22 48 21 49 23 52 24 54 25 57
REMARK SMILES IDX 26 58 30 59 27 60 29 62 28 64
REMARK H PARENT 15 2 15 3 14 5 14 6 11 11 12 12 12 13 36 15 13 16 34 17 4 26
REMARK H PARENT 8 28 9 29 1 31 1 32 37 34 35 36 17 41 33 43 18 45 20 50 21 51
REMARK H PARENT 23 53 24 55 24 56 26 61 30 63 27 65 29 66 28 67
REMARK Flexibility Score: inf
ROOT
ATOM      1  C   UNL     1     -47.545  35.252  27.580  1.00  0.00    -0.027 C 
ATOM      2  H   UNL     1     -48.479  35.804  27.420  1.00  0.00     0.032 H 
ATOM      3  H   UNL     1     -47.662  34.754  28.551  1.00  0.00     0.032 H 
ENDROOT
BRANCH   1   4
ATOM      4  C   UNL     1     -46.358  36.222  27.657  1.00  0.00    -0.044 C 
ATOM      5  H   UNL     1     -45.936  36.359  26.653  1.00  0.00     0.027 H 
ATOM      6  H   UNL     1     -45.568  35.755  28.260  1.00  0.00     0.027 H 
BRANCH   4   7
ATOM      7  C   UNL     1     -46.700  37.604  28.243  1.00  0.00    -0.010 C 
ATOM      8  C   UNL     1     -45.935  39.888  27.722  1.00  0.00     0.064 C 
ATOM      9  C   UNL     1     -45.475  38.539  28.297  1.00  0.00    -0.024 C 
ATOM     10  C   UNL     1     -46.947  39.442  26.656  1.00  0.00     0.101 C 
ATOM     11  H   UNL     1     -46.449  40.484  28.489  1.00  0.00     0.056 H 
ATOM     12  H   UNL     1     -45.111  38.641  29.325  1.00  0.00     0.029 H 
ATOM     13  H   UNL     1     -44.644  38.139  27.701  1.00  0.00     0.029 H 
ATOM     14  C   UNL     1     -47.735  38.343  27.379  1.00  0.00     0.085 C 
ATOM     15  H   UNL     1     -46.449  39.024  25.773  1.00  0.00     0.065 H 
ATOM     16  H   UNL     1     -47.098  37.478  29.257  1.00  0.00     0.033 H 
ATOM     17  H   UNL     1     -48.286  37.706  26.680  1.00  0.00     0.063 H 
BRANCH   8  18
ATOM     18  N   UNL     1     -44.821  40.706  27.269  1.00  0.00    -0.327 N 
ATOM     19  C   UNL     1     -43.656  43.782  25.947  1.00  0.00     0.136 A 
ATOM     20  N   UNL     1     -44.800  44.482  25.814  1.00  0.00    -0.219 NA
ATOM     21  C   UNL     1     -43.714  42.476  26.453  1.00  0.00     0.061 A 
ATOM     22  C   UNL     1     -45.952  43.890  26.183  1.00  0.00     0.120 A 
ATOM     23  C   UNL     1     -44.970  41.990  26.791  1.00  0.00     0.145 A 
ATOM     24  C   UNL     1     -42.784  41.439  26.733  1.00  0.00    -0.031 A 
ATOM     25  N   UNL     1     -46.134  42.654  26.680  1.00  0.00    -0.218 NA
ATOM     26  H   UNL     1     -46.849  44.490  26.063  1.00  0.00     0.106 H 
ATOM     27  C   UNL     1     -43.492  40.360  27.220  1.00  0.00     0.007 A 
ATOM     28  H   UNL     1     -41.713  41.474  26.586  1.00  0.00     0.065 H 
ATOM     29  H   UNL     1     -43.145  39.380  27.518  1.00  0.00     0.082 H 
BRANCH  19  30
ATOM     30  N   UNL     1     -42.479  44.402  25.550  1.00  0.00    -0.383 N 
ATOM     31  H   UNL     1     -42.162  45.045  26.266  1.00  0.00     0.158 HD
ATOM     32  H   UNL     1     -42.493  44.756  24.604  1.00  0.00     0.158 HD
ENDBRANCH  19  30
ENDBRANCH   8  18
BRANCH  10  33
ATOM     33  O   UNL     1     -47.819  40.490  26.246  1.00  0.00    -0.388 OA
ATOM     34  H   UNL     1     -47.647  40.605  25.287  1.00  0.00     0.211 HD
ENDBRANCH  10  33
BRANCH  14  35
ATOM     35  O   UNL     1     -48.701  38.981  28.229  1.00  0.00    -0.390 OA
ATOM     36  H   UNL     1     -49.556  38.957  27.761  1.00  0.00     0.211 HD
ENDBRANCH  14  35
ENDBRANCH   4   7
ENDBRANCH   1   4
BRANCH   1  37
ATOM     37  C   UNL     1     -47.386  34.186  26.524  1.00  0.00    -0.046 A 
ATOM     38  C   UNL     1     -46.371  34.276  25.568  1.00  0.00    -0.058 A 
ATOM     39  C   UNL     1     -48.250  33.078  26.492  1.00  0.00    -0.033 A 
ATOM     40  C   UNL     1     -46.226  33.275  24.609  1.00  0.00    -0.053 A 
ATOM     41  H   UNL     1     -45.686  35.122  25.563  1.00  0.00     0.063 H 
ATOM     42  C   UNL     1     -48.124  32.065  25.551  1.00  0.00     0.073 A 
ATOM     43  H   UNL     1     -49.051  32.997  27.225  1.00  0.00     0.065 H 
ATOM     44  C   UNL     1     -47.095  32.171  24.598  1.00  0.00     0.000 A 
ATOM     45  H   UNL     1     -45.432  33.360  23.870  1.00  0.00     0.063 H 
ATOM     46  N   UNL     1     -48.976  31.025  25.582  1.00  0.00    -0.231 NA
ATOM     47  C   UNL     1     -46.980  31.151  23.652  1.00  0.00    -0.049 A 
ATOM     48  C   UNL     1     -48.847  30.034  24.678  1.00  0.00     0.126 A 
ATOM     49  C   UNL     1     -47.868  30.079  23.691  1.00  0.00    -0.019 A 
ATOM     50  H   UNL     1     -46.214  31.183  22.883  1.00  0.00     0.063 H 
ATOM     51  H   UNL     1     -47.800  29.291  22.948  1.00  0.00     0.066 H 
BRANCH  48  52
ATOM     52  N   UNL     1     -49.744  28.955  24.658  1.00  0.00    -0.366 N 
ATOM     53  H   UNL     1     -50.632  29.265  24.275  1.00  0.00     0.162 HD
BRANCH  52  54
ATOM     54  C   UNL     1     -49.287  27.737  23.997  1.00  0.00     0.041 C 
ATOM     55  H   UNL     1     -50.081  27.179  23.485  1.00  0.00     0.054 H 
ATOM     56  H   UNL     1     -48.597  28.034  23.196  1.00  0.00     0.054 H 
BRANCH  54  57
ATOM     57  C   UNL     1     -48.535  26.853  24.966  1.00  0.00    -0.029 A 
ATOM     58  C   UNL     1     -47.133  26.825  24.964  1.00  0.00    -0.057 A 
ATOM     59  C   UNL     1     -49.228  26.019  25.857  1.00  0.00    -0.057 A 
ATOM     60  C   UNL     1     -46.439  25.993  25.844  1.00  0.00    -0.062 A 
ATOM     61  H   UNL     1     -46.579  27.450  24.267  1.00  0.00     0.063 H 
ATOM     62  C   UNL     1     -48.532  25.188  26.737  1.00  0.00    -0.062 A 
ATOM     63  H   UNL     1     -50.316  26.014  25.870  1.00  0.00     0.063 H 
ATOM     64  C   UNL     1     -47.138  25.177  26.731  1.00  0.00    -0.062 A 
ATOM     65  H   UNL     1     -45.353  25.981  25.834  1.00  0.00     0.062 H 
ATOM     66  H   UNL     1     -49.077  24.549  27.427  1.00  0.00     0.062 H 
ATOM     67  H   UNL     1     -46.597  24.529  27.416  1.00  0.00     0.062 H 
ENDBRANCH  54  57
ENDBRANCH  52  54
ENDBRANCH  48  52
ENDBRANCH   1  37
TORSDOF 10
ENDMDL
MODEL 4
REMARK VINA RESULT:     -11.0      1.692      2.372
REMARK SMILES Nc1ncnc2c1ccn2[C@@H]1C[C@H](CCc2ccc3ccc(NCc4ccccc4)nc3c2)[C@@H](O)[C@H]1O
REMARK SMILES IDX 15 1 14 4 13 7 11 8 12 9 36 10 34 14 10 18 2 19 3 20 7 21
REMARK SMILES IDX 4 22 6 23 8 24 5 25 9 27 1 30 37 33 35 35 16 37 17 38 33 39
REMARK SMILES IDX 18 40 32 42 19 44 31 46 20 47 22 48 21 49 23 52 24 54 25 57
REMARK SMILES IDX 26 58 30 59 27 60 29 62 28 64
REMARK H PARENT 15 2 15 3 14 5 14 6 11 11 12 12 12 13 36 15 13 16 34 17 4 26
REMARK H PARENT 8 28 9 29 1 31 1 32 37 34 35 36 17 41 33 43 18 45 20 50 21 51
REMARK H PARENT 23 53 24 55 24 56 26 61 30 63 27 65 29 66 28 67
REMARK Flexibility Score: inf
ROOT
ATOM      1  C   UNL     1     -48.075  35.410  27.446  1.00  0.00    -0.027 C 
ATOM      2  H   UNL     1     -49.106  35.250  27.782  1.00  0.00     0.032 H 
ATOM      3  H   UNL     1     -47.454  35.304  28.345  1.00  0.00     0.032 H 
ENDROOT
BRANCH   1   4
ATOM      4  C   UNL     1     -47.909  36.831  26.891  1.00  0.00    -0.044 C 
ATOM      5  H   UNL     1     -48.855  37.159  26.443  1.00  0.00     0.027 H 
ATOM      6  H   UNL     1     -47.177  36.800  26.073  1.00  0.00     0.027 H 
BRANCH   4   7
ATOM      7  C   UNL     1     -47.466  37.876  27.932  1.00  0.00    -0.010 C 
ATOM      8  C   UNL     1     -45.960  39.823  27.826  1.00  0.00     0.064 C 
ATOM      9  C   UNL     1     -45.990  38.288  27.760  1.00  0.00    -0.024 C 
ATOM     10  C   UNL     1     -47.299  40.188  27.169  1.00  0.00     0.101 C 
ATOM     11  H   UNL     1     -45.955  40.169  28.869  1.00  0.00     0.056 H 
ATOM     12  H   UNL     1     -45.369  37.838  28.543  1.00  0.00     0.029 H 
ATOM     13  H   UNL     1     -45.592  37.944  26.797  1.00  0.00     0.029 H 
ATOM     14  C   UNL     1     -48.268  39.180  27.799  1.00  0.00     0.085 C 
ATOM     15  H   UNL     1     -47.270  40.048  26.083  1.00  0.00     0.065 H 
ATOM     16  H   UNL     1     -47.607  37.464  28.939  1.00  0.00     0.033 H 
ATOM     17  H   UNL     1     -49.196  39.090  27.226  1.00  0.00     0.063 H 
BRANCH   8  18
ATOM     18  N   UNL     1     -44.759  40.380  27.222  1.00  0.00    -0.327 N 
ATOM     19  C   UNL     1     -41.393  41.434  27.576  1.00  0.00     0.136 A 
ATOM     20  N   UNL     1     -41.162  41.202  28.882  1.00  0.00    -0.219 NA
ATOM     21  C   UNL     1     -42.656  41.136  27.046  1.00  0.00     0.061 A 
ATOM     22  C   UNL     1     -42.162  40.683  29.622  1.00  0.00     0.120 A 
ATOM     23  C   UNL     1     -43.595  40.608  27.923  1.00  0.00     0.145 A 
ATOM     24  C   UNL     1     -43.289  41.232  25.777  1.00  0.00    -0.031 A 
ATOM     25  N   UNL     1     -43.405  40.356  29.231  1.00  0.00    -0.218 NA
ATOM     26  H   UNL     1     -41.932  40.509  30.668  1.00  0.00     0.106 H 
ATOM     27  C   UNL     1     -44.582  40.773  25.917  1.00  0.00     0.007 A 
ATOM     28  H   UNL     1     -42.849  41.604  24.863  1.00  0.00     0.065 H 
ATOM     29  H   UNL     1     -45.380  40.714  25.188  1.00  0.00     0.082 H 
BRANCH  19  30
ATOM     30  N   UNL     1     -40.357  41.981  26.832  1.00  0.00    -0.383 N 
ATOM     31  H   UNL     1     -40.018  42.829  27.271  1.00  0.00     0.158 HD
ATOM     32  H   UNL     1     -40.537  42.031  25.839  1.00  0.00     0.158 HD
ENDBRANCH  19  30
ENDBRANCH   8  18
BRANCH  10  33
ATOM     33  O   UNL     1     -47.713  41.520  27.456  1.00  0.00    -0.388 OA
ATOM     34  H   UNL     1     -46.995  42.091  27.108  1.00  0.00     0.211 HD
ENDBRANCH  10  33
BRANCH  14  35
ATOM     35  O   UNL     1     -48.617  39.664  29.106  1.00  0.00    -0.390 OA
ATOM     36  H   UNL     1     -47.893  40.248  29.399  1.00  0.00     0.211 HD
ENDBRANCH  14  35
ENDBRANCH   4   7
ENDBRANCH   1   4
BRANCH   1  37
ATOM     37  C   UNL     1     -47.674  34.331  26.471  1.00  0.00    -0.046 A 
ATOM     38  C   UNL     1     -46.420  34.356  25.855  1.00  0.00    -0.058 A 
ATOM     39  C   UNL     1     -48.554  33.275  26.175  1.00  0.00    -0.033 A 
ATOM     40  C   UNL     1     -46.059  33.342  24.969  1.00  0.00    -0.053 A 
ATOM     41  H   UNL     1     -45.717  35.159  26.061  1.00  0.00     0.063 H 
ATOM     42  C   UNL     1     -48.216  32.251  25.300  1.00  0.00     0.073 A 
ATOM     43  H   UNL     1     -49.538  33.245  26.639  1.00  0.00     0.065 H 
ATOM     44  C   UNL     1     -46.948  32.291  24.691  1.00  0.00     0.000 A 
ATOM     45  H   UNL     1     -45.079  33.377  24.497  1.00  0.00     0.063 H 
ATOM     46  N   UNL     1     -49.098  31.263  25.068  1.00  0.00    -0.231 NA
ATOM     47  C   UNL     1     -46.621  31.260  23.809  1.00  0.00    -0.049 A 
ATOM     48  C   UNL     1     -48.767  30.261  24.230  1.00  0.00     0.126 A 
ATOM     49  C   UNL     1     -47.541  30.243  23.574  1.00  0.00    -0.019 A 
ATOM     50  H   UNL     1     -45.662  31.243  23.298  1.00  0.00     0.063 H 
ATOM     51  H   UNL     1     -47.303  29.448  22.874  1.00  0.00     0.066 H 
BRANCH  48  52
ATOM     52  N   UNL     1     -49.680  29.236  23.935  1.00  0.00    -0.366 N 
ATOM     53  H   UNL     1     -49.349  28.715  23.130  1.00  0.00     0.162 HD
BRANCH  52  54
ATOM     54  C   UNL     1     -50.032  28.339  25.030  1.00  0.00     0.041 C 
ATOM     55  H   UNL     1     -50.537  28.832  25.870  1.00  0.00     0.054 H 
ATOM     56  H   UNL     1     -50.770  27.622  24.646  1.00  0.00     0.054 H 
BRANCH  54  57
ATOM     57  C   UNL     1     -48.820  27.566  25.500  1.00  0.00    -0.029 A 
ATOM     58  C   UNL     1     -48.049  26.830  24.589  1.00  0.00    -0.057 A 
ATOM     59  C   UNL     1     -48.469  27.543  26.858  1.00  0.00    -0.057 A 
ATOM     60  C   UNL     1     -46.943  26.099  25.024  1.00  0.00    -0.062 A 
ATOM     61  H   UNL     1     -48.317  26.820  23.534  1.00  0.00     0.063 H 
ATOM     62  C   UNL     1     -47.362  26.812  27.292  1.00  0.00    -0.062 A 
ATOM     63  H   UNL     1     -49.058  28.097  27.586  1.00  0.00     0.063 H 
ATOM     64  C   UNL     1     -46.598  26.092  26.374  1.00  0.00    -0.062 A 
ATOM     65  H   UNL     1     -46.352  25.533  24.309  1.00  0.00     0.062 H 
ATOM     66  H   UNL     1     -47.095  26.804  28.345  1.00  0.00     0.062 H 
ATOM     67  H   UNL     1     -45.736  25.522  26.713  1.00  0.00     0.062 H 
ENDBRANCH  54  57
ENDBRANCH  52  54
ENDBRANCH  48  52
ENDBRANCH   1  37
TORSDOF 10
ENDMDL
MODEL 5
REMARK VINA RESULT:     -11.0      3.218     12.168
REMARK SMILES Nc1ncnc2c1ccn2[C@@H]1C[C@H](CCc2ccc3ccc(NCc4ccccc4)nc3c2)[C@@H](O)[C@H]1O
REMARK SMILES IDX 15 1 14 4 13 7 11 8 12 9 36 10 34 14 10 18 2 19 3 20 7 21
REMARK SMILES IDX 4 22 6 23 8 24 5 25 9 27 1 30 37 33 35 35 16 37 17 38 33 39
REMARK SMILES IDX 18 40 32 42 19 44 31 46 20 47 22 48 21 49 23 52 24 54 25 57
REMARK SMILES IDX 26 58 30 59 27 60 29 62 28 64
REMARK H PARENT 15 2 15 3 14 5 14 6 11 11 12 12 12 13 36 15 13 16 34 17 4 26
REMARK H PARENT 8 28 9 29 1 31 1 32 37 34 35 36 17 41 33 43 18 45 20 50 21 51
REMARK H PARENT 23 53 24 55 24 56 26 61 30 63 27 65 29 66 28 67
REMARK Flexibility Score: inf
ROOT
ATOM      1  C   UNL     1     -47.354  32.841  24.905  1.00  0.00    -0.027 C 
ATOM      2  H   UNL     1     -47.768  31.897  25.279  1.00  0.00     0.032 H 
ATOM      3  H   UNL     1     -48.188  33.350  24.406  1.00  0.00     0.032 H 
ENDROOT
BRANCH   1   4
ATOM      4  C   UNL     1     -46.248  32.568  23.876  1.00  0.00    -0.044 C 
ATOM      5  H   UNL     1     -45.280  32.874  24.293  1.00  0.00     0.027 H 
ATOM      6  H   UNL     1     -46.422  33.209  23.002  1.00  0.00     0.027 H 
BRANCH   4   7
ATOM      7  C   UNL     1     -46.149  31.100  23.421  1.00  0.00    -0.010 C 
ATOM      8  C   UNL     1     -47.792  29.269  23.278  1.00  0.00     0.064 C 
ATOM      9  C   UNL     1     -47.029  30.161  24.271  1.00  0.00    -0.024 C 
ATOM     10  C   UNL     1     -48.008  30.230  22.099  1.00  0.00     0.101 C 
ATOM     11  H   UNL     1     -47.169  28.424  22.954  1.00  0.00     0.056 H 
ATOM     12  H   UNL     1     -46.413  29.568  24.955  1.00  0.00     0.029 H 
ATOM     13  H   UNL     1     -47.737  30.730  24.887  1.00  0.00     0.029 H 
ATOM     14  C   UNL     1     -46.645  30.922  21.977  1.00  0.00     0.085 C 
ATOM     15  H   UNL     1     -48.784  30.972  22.318  1.00  0.00     0.065 H 
ATOM     16  H   UNL     1     -45.106  30.770  23.489  1.00  0.00     0.033 H 
ATOM     17  H   UNL     1     -46.707  31.849  21.397  1.00  0.00     0.063 H 
BRANCH   8  18
ATOM     18  N   UNL     1     -48.982  28.677  23.868  1.00  0.00    -0.327 N 
ATOM     19  C   UNL     1     -50.415  26.256  26.026  1.00  0.00     0.136 A 
ATOM     20  N   UNL     1     -49.327  25.606  26.481  1.00  0.00    -0.219 NA
ATOM     21  C   UNL     1     -50.246  27.312  25.119  1.00  0.00     0.061 A 
ATOM     22  C   UNL     1     -48.118  26.010  26.046  1.00  0.00     0.120 A 
ATOM     23  C   UNL     1     -48.943  27.620  24.753  1.00  0.00     0.145 A 
ATOM     24  C   UNL     1     -51.093  28.214  24.421  1.00  0.00    -0.031 A 
ATOM     25  N   UNL     1     -47.829  27.002  25.187  1.00  0.00    -0.218 NA
ATOM     26  H   UNL     1     -47.268  25.462  26.441  1.00  0.00     0.106 H 
ATOM     27  C   UNL     1     -50.291  29.032  23.651  1.00  0.00     0.007 A 
ATOM     28  H   UNL     1     -52.172  28.256  24.468  1.00  0.00     0.065 H 
ATOM     29  H   UNL     1     -50.564  29.821  22.963  1.00  0.00     0.082 H 
BRANCH  19  30
ATOM     30  N   UNL     1     -51.654  25.819  26.474  1.00  0.00    -0.383 N 
ATOM     31  H   UNL     1     -51.618  24.832  26.701  1.00  0.00     0.158 HD
ATOM     32  H   UNL     1     -52.434  26.119  25.906  1.00  0.00     0.158 HD
ENDBRANCH  19  30
ENDBRANCH   8  18
BRANCH  10  33
ATOM     33  O   UNL     1     -48.333  29.557  20.888  1.00  0.00    -0.388 OA
ATOM     34  H   UNL     1     -48.413  30.266  20.215  1.00  0.00     0.211 HD
ENDBRANCH  10  33
BRANCH  14  35
ATOM     35  O   UNL     1     -45.763  30.034  21.273  1.00  0.00    -0.390 OA
ATOM     36  H   UNL     1     -46.311  29.315  20.907  1.00  0.00     0.211 HD
ENDBRANCH  14  35
ENDBRANCH   4   7
ENDBRANCH   1   4
BRANCH   1  37
ATOM     37  C   UNL     1     -46.904  33.702  26.059  1.00  0.00    -0.046 A 
ATOM     38  C   UNL     1     -46.467  33.123  27.253  1.00  0.00    -0.058 A 
ATOM     39  C   UNL     1     -46.905  35.103  25.946  1.00  0.00    -0.033 A 
ATOM     40  C   UNL     1     -46.039  33.932  28.304  1.00  0.00    -0.053 A 
ATOM     41  H   UNL     1     -46.455  32.042  27.374  1.00  0.00     0.063 H 
ATOM     42  C   UNL     1     -46.479  35.931  26.976  1.00  0.00     0.073 A 
ATOM     43  H   UNL     1     -47.250  35.571  25.026  1.00  0.00     0.065 H 
ATOM     44  C   UNL     1     -46.040  35.330  28.170  1.00  0.00     0.000 A 
ATOM     45  H   UNL     1     -45.703  33.466  29.229  1.00  0.00     0.063 H 
ATOM     46  N   UNL     1     -46.494  37.264  26.801  1.00  0.00    -0.231 NA
ATOM     47  C   UNL     1     -45.619  36.171  29.201  1.00  0.00    -0.049 A 
ATOM     48  C   UNL     1     -46.067  38.069  27.794  1.00  0.00     0.126 A 
ATOM     49  C   UNL     1     -45.640  37.551  29.012  1.00  0.00    -0.019 A 
ATOM     50  H   UNL     1     -45.282  35.768  30.152  1.00  0.00     0.063 H 
ATOM     51  H   UNL     1     -45.333  38.213  29.815  1.00  0.00     0.066 H 
BRANCH  48  52
ATOM     52  N   UNL     1     -46.108  39.465  27.659  1.00  0.00    -0.366 N 
ATOM     53  H   UNL     1     -45.961  39.895  28.567  1.00  0.00     0.162 HD
BRANCH  52  54
ATOM     54  C   UNL     1     -45.225  40.051  26.655  1.00  0.00     0.041 C 
ATOM     55  H   UNL     1     -44.973  39.375  25.830  1.00  0.00     0.054 H 
ATOM     56  H   UNL     1     -45.769  40.878  26.178  1.00  0.00     0.054 H 
BRANCH  54  57
ATOM     57  C   UNL     1     -43.979  40.613  27.301  1.00  0.00    -0.029 A 
ATOM     58  C   UNL     1     -43.639  40.264  28.616  1.00  0.00    -0.057 A 
ATOM     59  C   UNL     1     -43.163  41.522  26.610  1.00  0.00    -0.057 A 
ATOM     60  C   UNL     1     -42.501  40.799  29.221  1.00  0.00    -0.062 A 
ATOM     61  H   UNL     1     -44.271  39.576  29.175  1.00  0.00     0.063 H 
ATOM     62  C   UNL     1     -42.024  42.055  27.216  1.00  0.00    -0.062 A 
ATOM     63  H   UNL     1     -43.411  41.816  25.592  1.00  0.00     0.063 H 
ATOM     64  C   UNL     1     -41.693  41.692  28.521  1.00  0.00    -0.062 A 
ATOM     65  H   UNL     1     -42.248  40.520  30.240  1.00  0.00     0.062 H 
ATOM     66  H   UNL     1     -41.395  42.754  26.671  1.00  0.00     0.062 H 
ATOM     67  H   UNL     1     -40.807  42.109  28.993  1.00  0.00     0.062 H 
ENDBRANCH  54  57
ENDBRANCH  52  54
ENDBRANCH  48  52
ENDBRANCH   1  37
TORSDOF 10
ENDMDL
MODEL 6
REMARK VINA RESULT:     -10.7      2.664      4.172
REMARK SMILES Nc1ncnc2c1ccn2[C@@H]1C[C@H](CCc2ccc3ccc(NCc4ccccc4)nc3c2)[C@@H](O)[C@H]1O
REMARK SMILES IDX 15 1 14 4 13 7 11 8 12 9 36 10 34 14 10 18 2 19 3 20 7 21
REMARK SMILES IDX 4 22 6 23 8 24 5 25 9 27 1 30 37 33 35 35 16 37 17 38 33 39
REMARK SMILES IDX 18 40 32 42 19 44 31 46 20 47 22 48 21 49 23 52 24 54 25 57
REMARK SMILES IDX 26 58 30 59 27 60 29 62 28 64
REMARK H PARENT 15 2 15 3 14 5 14 6 11 11 12 12 12 13 36 15 13 16 34 17 4 26
REMARK H PARENT 8 28 9 29 1 31 1 32 37 34 35 36 17 41 33 43 18 45 20 50 21 51
REMARK H PARENT 23 53 24 55 24 56 26 61 30 63 27 65 29 66 28 67
REMARK Flexibility Score: inf
ROOT
ATOM      1  C   UNL     1     -46.210  36.407  26.984  1.00  0.00    -0.027 C 
ATOM      2  H   UNL     1     -45.165  36.310  26.668  1.00  0.00     0.032 H 
ATOM      3  H   UNL     1     -46.607  37.263  26.423  1.00  0.00     0.032 H 
ENDROOT
BRANCH   1   4
ATOM      4  C   UNL     1     -46.287  36.715  28.486  1.00  0.00    -0.044 C 
ATOM      5  H   UNL     1     -45.347  36.417  28.967  1.00  0.00     0.027 H 
ATOM      6  H   UNL     1     -47.071  36.086  28.929  1.00  0.00     0.027 H 
BRANCH   4   7
ATOM      7  C   UNL     1     -46.568  38.192  28.821  1.00  0.00    -0.010 C 
ATOM      8  C   UNL     1     -45.955  40.311  27.722  1.00  0.00     0.064 C 
ATOM      9  C   UNL     1     -45.374  39.108  28.482  1.00  0.00    -0.024 C 
ATOM     10  C   UNL     1     -47.112  39.660  26.948  1.00  0.00     0.101 C 
ATOM     11  H   UNL     1     -46.355  41.058  28.421  1.00  0.00     0.056 H 
ATOM     12  H   UNL     1     -44.854  39.420  29.394  1.00  0.00     0.029 H 
ATOM     13  H   UNL     1     -44.639  38.586  27.855  1.00  0.00     0.029 H 
ATOM     14  C   UNL     1     -47.746  38.742  28.001  1.00  0.00     0.085 C 
ATOM     15  H   UNL     1     -46.750  39.063  26.103  1.00  0.00     0.065 H 
ATOM     16  H   UNL     1     -46.795  38.283  29.889  1.00  0.00     0.033 H 
ATOM     17  H   UNL     1     -48.384  37.978  27.547  1.00  0.00     0.063 H 
BRANCH   8  18
ATOM     18  N   UNL     1     -44.949  41.007  26.935  1.00  0.00    -0.327 N 
ATOM     19  C   UNL     1     -41.636  42.235  26.649  1.00  0.00     0.136 A 
ATOM     20  N   UNL     1     -41.101  41.878  27.832  1.00  0.00    -0.219 NA
ATOM     21  C   UNL     1     -42.975  41.914  26.384  1.00  0.00     0.061 A 
ATOM     22  C   UNL     1     -41.882  41.218  28.709  1.00  0.00     0.120 A 
ATOM     23  C   UNL     1     -43.664  41.234  27.379  1.00  0.00     0.145 A 
ATOM     24  C   UNL     1     -43.886  42.105  25.311  1.00  0.00    -0.031 A 
ATOM     25  N   UNL     1     -43.169  40.854  28.571  1.00  0.00    -0.218 NA
ATOM     26  H   UNL     1     -41.410  40.946  29.649  1.00  0.00     0.106 H 
ATOM     27  C   UNL     1     -45.093  41.550  25.681  1.00  0.00     0.007 A 
ATOM     28  H   UNL     1     -43.684  42.603  24.373  1.00  0.00     0.065 H 
ATOM     29  H   UNL     1     -46.034  41.519  25.148  1.00  0.00     0.082 H 
BRANCH  19  30
ATOM     30  N   UNL     1     -40.821  42.926  25.762  1.00  0.00    -0.383 N 
ATOM     31  H   UNL     1     -39.859  42.622  25.860  1.00  0.00     0.158 HD
ATOM     32  H   UNL     1     -40.976  43.924  25.745  1.00  0.00     0.158 HD
ENDBRANCH  19  30
ENDBRANCH   8  18
BRANCH  10  33
ATOM     33  O   UNL     1     -48.065  40.606  26.476  1.00  0.00    -0.388 OA
ATOM     34  H   UNL     1     -47.565  41.445  26.377  1.00  0.00     0.211 HD
ENDBRANCH  10  33
BRANCH  14  35
ATOM     35  O   UNL     1     -48.580  39.552  28.844  1.00  0.00    -0.390 OA
ATOM     36  H   UNL     1     -49.022  38.951  29.473  1.00  0.00     0.211 HD
ENDBRANCH  14  35
ENDBRANCH   4   7
ENDBRANCH   1   4
BRANCH   1  37
ATOM     37  C   UNL     1     -46.990  35.181  26.579  1.00  0.00    -0.046 A 
ATOM     38  C   UNL     1     -48.344  35.059  26.901  1.00  0.00    -0.058 A 
ATOM     39  C   UNL     1     -46.368  34.145  25.861  1.00  0.00    -0.033 A 
ATOM     40  C   UNL     1     -49.055  33.927  26.505  1.00  0.00    -0.053 A 
ATOM     41  H   UNL     1     -48.855  35.842  27.457  1.00  0.00     0.063 H 
ATOM     42  C   UNL     1     -47.055  33.010  25.451  1.00  0.00     0.073 A 
ATOM     43  H   UNL     1     -45.311  34.220  25.610  1.00  0.00     0.065 H 
ATOM     44  C   UNL     1     -48.418  32.906  25.781  1.00  0.00     0.000 A 
ATOM     45  H   UNL     1     -50.109  33.846  26.764  1.00  0.00     0.063 H 
ATOM     46  N   UNL     1     -46.404  32.060  24.756  1.00  0.00    -0.231 NA
ATOM     47  C   UNL     1     -49.098  31.758  25.369  1.00  0.00    -0.049 A 
ATOM     48  C   UNL     1     -47.072  30.964  24.344  1.00  0.00     0.126 A 
ATOM     49  C   UNL     1     -48.416  30.779  24.652  1.00  0.00    -0.019 A 
ATOM     50  H   UNL     1     -50.148  31.614  25.605  1.00  0.00     0.063 H 
ATOM     51  H   UNL     1     -48.931  29.875  24.345  1.00  0.00     0.066 H 
BRANCH  48  52
ATOM     52  N   UNL     1     -46.414  29.936  23.653  1.00  0.00    -0.366 N 
ATOM     53  H   UNL     1     -47.026  29.128  23.592  1.00  0.00     0.162 HD
BRANCH  52  54
ATOM     54  C   UNL     1     -45.865  30.275  22.344  1.00  0.00     0.041 C 
ATOM     55  H   UNL     1     -45.164  31.119  22.357  1.00  0.00     0.054 H 
ATOM     56  H   UNL     1     -45.263  29.421  22.006  1.00  0.00     0.054 H 
BRANCH  54  57
ATOM     57  C   UNL     1     -46.974  30.500  21.341  1.00  0.00    -0.029 A 
ATOM     58  C   UNL     1     -46.880  31.531  20.395  1.00  0.00    -0.057 A 
ATOM     59  C   UNL     1     -48.130  29.706  21.364  1.00  0.00    -0.057 A 
ATOM     60  C   UNL     1     -47.912  31.753  19.483  1.00  0.00    -0.062 A 
ATOM     61  H   UNL     1     -45.999  32.170  20.375  1.00  0.00     0.063 H 
ATOM     62  C   UNL     1     -49.161  29.928  20.450  1.00  0.00    -0.062 A 
ATOM     63  H   UNL     1     -48.231  28.906  22.095  1.00  0.00     0.063 H 
ATOM     64  C   UNL     1     -49.051  30.951  19.508  1.00  0.00    -0.062 A 
ATOM     65  H   UNL     1     -47.827  32.554  18.753  1.00  0.00     0.062 H 
ATOM     66  H   UNL     1     -50.051  29.304  20.472  1.00  0.00     0.062 H 
ATOM     67  H   UNL     1     -49.855  31.124  18.797  1.00  0.00     0.062 H 
ENDBRANCH  54  57
ENDBRANCH  52  54
ENDBRANCH  48  52
ENDBRANCH   1  37
TORSDOF 10
ENDMDL
MODEL 7
REMARK VINA RESULT:     -10.7      3.434     11.875
REMARK SMILES Nc1ncnc2c1ccn2[C@@H]1C[C@H](CCc2ccc3ccc(NCc4ccccc4)nc3c2)[C@@H](O)[C@H]1O
REMARK SMILES IDX 15 1 14 4 13 7 11 8 12 9 36 10 34 14 10 18 2 19 3 20 7 21
REMARK SMILES IDX 4 22 6 23 8 24 5 25 9 27 1 30 37 33 35 35 16 37 17 38 33 39
REMARK SMILES IDX 18 40 32 42 19 44 31 46 20 47 22 48 21 49 23 52 24 54 25 57
REMARK SMILES IDX 26 58 30 59 27 60 29 62 28 64
REMARK H PARENT 15 2 15 3 14 5 14 6 11 11 12 12 12 13 36 15 13 16 34 17 4 26
REMARK H PARENT 8 28 9 29 1 31 1 32 37 34 35 36 17 41 33 43 18 45 20 50 21 51
REMARK H PARENT 23 53 24 55 24 56 26 61 30 63 27 65 29 66 28 67
REMARK Flexibility Score: inf
ROOT
ATOM      1  C   UNL     1     -46.286  32.229  24.715  1.00  0.00    -0.027 C 
ATOM      2  H   UNL     1     -45.281  32.126  25.144  1.00  0.00     0.032 H 
ATOM      3  H   UNL     1     -46.775  31.261  24.881  1.00  0.00     0.032 H 
ENDROOT
BRANCH   1   4
ATOM      4  C   UNL     1     -46.197  32.491  23.205  1.00  0.00    -0.044 C 
ATOM      5  H   UNL     1     -45.301  33.086  22.992  1.00  0.00     0.027 H 
ATOM      6  H   UNL     1     -47.054  33.110  22.910  1.00  0.00     0.027 H 
BRANCH   4   7
ATOM      7  C   UNL     1     -46.164  31.219  22.338  1.00  0.00    -0.010 C 
ATOM      8  C   UNL     1     -46.744  28.865  22.783  1.00  0.00     0.064 C 
ATOM      9  C   UNL     1     -45.739  29.972  23.140  1.00  0.00    -0.024 C 
ATOM     10  C   UNL     1     -48.036  29.671  22.583  1.00  0.00     0.101 C 
ATOM     11  H   UNL     1     -46.467  28.376  21.839  1.00  0.00     0.056 H 
ATOM     12  H   UNL     1     -44.713  29.681  22.890  1.00  0.00     0.029 H 
ATOM     13  H   UNL     1     -45.763  30.168  24.220  1.00  0.00     0.029 H 
ATOM     14  C   UNL     1     -47.555  30.883  21.776  1.00  0.00     0.085 C 
ATOM     15  H   UNL     1     -48.458  30.004  23.539  1.00  0.00     0.065 H 
ATOM     16  H   UNL     1     -45.463  31.365  21.508  1.00  0.00     0.033 H 
ATOM     17  H   UNL     1     -48.273  31.708  21.808  1.00  0.00     0.063 H 
BRANCH   8  18
ATOM     18  N   UNL     1     -46.779  27.806  23.779  1.00  0.00    -0.327 N 
ATOM     19  C   UNL     1     -48.562  26.077  26.309  1.00  0.00     0.136 A 
ATOM     20  N   UNL     1     -49.735  26.739  26.328  1.00  0.00    -0.219 NA
ATOM     21  C   UNL     1     -47.566  26.485  25.410  1.00  0.00     0.061 A 
ATOM     22  C   UNL     1     -49.898  27.766  25.471  1.00  0.00     0.120 A 
ATOM     23  C   UNL     1     -47.869  27.560  24.586  1.00  0.00     0.145 A 
ATOM     24  C   UNL     1     -46.243  26.080  25.087  1.00  0.00    -0.031 A 
ATOM     25  N   UNL     1     -49.027  28.245  24.568  1.00  0.00    -0.218 NA
ATOM     26  H   UNL     1     -50.860  28.269  25.518  1.00  0.00     0.106 H 
ATOM     27  C   UNL     1     -45.780  26.916  24.092  1.00  0.00     0.007 A 
ATOM     28  H   UNL     1     -45.686  25.271  25.539  1.00  0.00     0.065 H 
ATOM     29  H   UNL     1     -44.815  26.944  23.604  1.00  0.00     0.082 H 
BRANCH  19  30
ATOM     30  N   UNL     1     -48.405  25.031  27.208  1.00  0.00    -0.383 N 
ATOM     31  H   UNL     1     -49.181  24.384  27.133  1.00  0.00     0.158 HD
ATOM     32  H   UNL     1     -48.149  25.318  28.142  1.00  0.00     0.158 HD
ENDBRANCH  19  30
ENDBRANCH   8  18
BRANCH  10  33
ATOM     33  O   UNL     1     -49.030  28.955  21.859  1.00  0.00    -0.388 OA
ATOM     34  H   UNL     1     -49.171  29.472  21.038  1.00  0.00     0.211 HD
ENDBRANCH  10  33
BRANCH  14  35
ATOM     35  O   UNL     1     -47.432  30.476  20.404  1.00  0.00    -0.390 OA
ATOM     36  H   UNL     1     -47.483  31.283  19.858  1.00  0.00     0.211 HD
ENDBRANCH  14  35
ENDBRANCH   4   7
ENDBRANCH   1   4
BRANCH   1  37
ATOM     37  C   UNL     1     -47.064  33.282  25.465  1.00  0.00    -0.046 A 
ATOM     38  C   UNL     1     -48.398  33.066  25.818  1.00  0.00    -0.058 A 
ATOM     39  C   UNL     1     -46.453  34.494  25.831  1.00  0.00    -0.033 A 
ATOM     40  C   UNL     1     -49.098  34.042  26.526  1.00  0.00    -0.053 A 
ATOM     41  H   UNL     1     -48.901  32.139  25.549  1.00  0.00     0.063 H 
ATOM     42  C   UNL     1     -47.127  35.479  26.540  1.00  0.00     0.073 A 
ATOM     43  H   UNL     1     -45.417  34.682  25.556  1.00  0.00     0.065 H 
ATOM     44  C   UNL     1     -48.469  35.244  26.889  1.00  0.00     0.000 A 
ATOM     45  H   UNL     1     -50.137  33.859  26.792  1.00  0.00     0.063 H 
ATOM     46  N   UNL     1     -46.482  36.613  26.870  1.00  0.00    -0.231 NA
ATOM     47  C   UNL     1     -49.139  36.243  27.597  1.00  0.00    -0.049 A 
ATOM     48  C   UNL     1     -47.130  37.565  27.570  1.00  0.00     0.126 A 
ATOM     49  C   UNL     1     -48.464  37.414  27.932  1.00  0.00    -0.019 A 
ATOM     50  H   UNL     1     -50.180  36.125  27.883  1.00  0.00     0.063 H 
ATOM     51  H   UNL     1     -48.983  38.205  28.464  1.00  0.00     0.066 H 
BRANCH  48  52
ATOM     52  N   UNL     1     -46.500  38.776  27.895  1.00  0.00    -0.366 N 
ATOM     53  H   UNL     1     -46.952  39.181  28.709  1.00  0.00     0.162 HD
BRANCH  52  54
ATOM     54  C   UNL     1     -45.051  38.732  28.069  1.00  0.00     0.041 C 
ATOM     55  H   UNL     1     -44.728  38.559  29.102  1.00  0.00     0.054 H 
ATOM     56  H   UNL     1     -44.677  37.863  27.512  1.00  0.00     0.054 H 
BRANCH  54  57
ATOM     57  C   UNL     1     -44.407  39.975  27.495  1.00  0.00    -0.029 A 
ATOM     58  C   UNL     1     -43.424  40.665  28.219  1.00  0.00    -0.057 A 
ATOM     59  C   UNL     1     -44.808  40.477  26.248  1.00  0.00    -0.057 A 
ATOM     60  C   UNL     1     -42.844  41.824  27.700  1.00  0.00    -0.062 A 
ATOM     61  H   UNL     1     -43.114  40.302  29.196  1.00  0.00     0.063 H 
ATOM     62  C   UNL     1     -44.226  41.635  25.730  1.00  0.00    -0.062 A 
ATOM     63  H   UNL     1     -45.576  39.965  25.672  1.00  0.00     0.063 H 
ATOM     64  C   UNL     1     -43.243  42.307  26.455  1.00  0.00    -0.062 A 
ATOM     65  H   UNL     1     -42.083  42.350  28.269  1.00  0.00     0.062 H 
ATOM     66  H   UNL     1     -44.540  42.014  24.761  1.00  0.00     0.062 H 
ATOM     67  H   UNL     1     -42.791  43.210  26.052  1.00  0.00     0.062 H 
ENDBRANCH  54  57
ENDBRANCH  52  54
ENDBRANCH  48  52
ENDBRANCH   1  37
TORSDOF 10
ENDMDL
