MODEL 1
REMARK VINA RESULT:      -9.8      0.000      0.000
REMARK SMILES O=C(NCc1ccc2cc[nH]c2c1)c1cc(=O)n2ccccc2n1
REMARK SMILES IDX 1 1 2 2 3 3 14 5 15 6 24 7 16 8 23 10 17 11 18 12 22 13
REMARK SMILES IDX 19 14 21 15 20 17 4 21 5 24 6 25 13 26 7 27 12 29 8 31 11 33
REMARK SMILES IDX 9 34 10 35
REMARK H PARENT 3 4 15 9 22 16 19 18 21 19 20 20 4 22 4 23 6 28 13 30 7 32
REMARK H PARENT 11 36 9 37 10 38
REMARK Flexibility Score: inf
ROOT
ATOM      1  O   UNL     1     -46.419  36.563  29.606  1.00  0.00    -0.268 OA
ATOM      2  C   UNL     1     -46.500  37.299  28.631  1.00  0.00     0.270 C 
ATOM      3  N   UNL     1     -47.464  37.191  27.661  1.00  0.00    -0.347 N 
ATOM      4  H   UNL     1     -47.384  37.809  26.860  1.00  0.00     0.164 HD
ENDROOT
BRANCH   2   5
ATOM      5  C   UNL     1     -45.535  38.428  28.360  1.00  0.00     0.136 A 
ATOM      6  C   UNL     1     -45.715  39.103  27.223  1.00  0.00     0.035 A 
ATOM      7  N   UNL     1     -44.547  38.692  29.281  1.00  0.00    -0.225 NA
ATOM      8  C   UNL     1     -44.799  40.209  26.918  1.00  0.00     0.258 A 
ATOM      9  H   UNL     1     -46.497  38.887  26.505  1.00  0.00     0.071 H 
ATOM     10  C   UNL     1     -43.739  39.669  29.008  1.00  0.00     0.140 A 
ATOM     11  O   UNL     1     -44.956  40.836  25.871  1.00  0.00    -0.269 OA
ATOM     12  N   UNL     1     -43.812  40.453  27.861  1.00  0.00    -0.268 N 
ATOM     13  C   UNL     1     -42.653  39.989  29.977  1.00  0.00    -0.019 A 
ATOM     14  C   UNL     1     -42.906  41.486  27.643  1.00  0.00     0.014 A 
ATOM     15  C   UNL     1     -41.805  40.993  29.722  1.00  0.00    -0.057 A 
ATOM     16  H   UNL     1     -42.588  39.385  30.873  1.00  0.00     0.066 H 
ATOM     17  C   UNL     1     -41.933  41.769  28.518  1.00  0.00    -0.045 A 
ATOM     18  H   UNL     1     -43.022  42.059  26.725  1.00  0.00     0.082 H 
ATOM     19  H   UNL     1     -41.008  41.242  30.416  1.00  0.00     0.062 H 
ATOM     20  H   UNL     1     -41.231  42.577  28.337  1.00  0.00     0.064 H 
ENDBRANCH   2   5
BRANCH   3  21
ATOM     21  C   UNL     1     -48.423  36.119  27.655  1.00  0.00     0.043 C 
ATOM     22  H   UNL     1     -48.577  35.788  28.689  1.00  0.00     0.054 H 
ATOM     23  H   UNL     1     -49.388  36.501  27.300  1.00  0.00     0.054 H 
BRANCH  21  24
ATOM     24  C   UNL     1     -47.949  34.981  26.790  1.00  0.00    -0.027 A 
ATOM     25  C   UNL     1     -46.667  35.011  26.224  1.00  0.00    -0.057 A 
ATOM     26  C   UNL     1     -48.815  33.908  26.512  1.00  0.00    -0.033 A 
ATOM     27  C   UNL     1     -46.218  33.976  25.393  1.00  0.00    -0.053 A 
ATOM     28  H   UNL     1     -46.002  35.847  26.426  1.00  0.00     0.063 H 
ATOM     29  C   UNL     1     -48.347  32.884  25.680  1.00  0.00     0.046 A 
ATOM     30  H   UNL     1     -49.817  33.879  26.929  1.00  0.00     0.065 H 
ATOM     31  C   UNL     1     -47.071  32.893  25.117  1.00  0.00    -0.001 A 
ATOM     32  H   UNL     1     -45.219  34.013  24.967  1.00  0.00     0.063 H 
ATOM     33  N   UNL     1     -48.968  31.731  25.254  1.00  0.00    -0.361 N 
ATOM     34  C   UNL     1     -46.947  31.708  24.340  1.00  0.00    -0.037 A 
ATOM     35  C   UNL     1     -48.130  31.013  24.443  1.00  0.00     0.002 A 
ATOM     36  H   UNL     1     -49.908  31.460  25.510  1.00  0.00     0.166 HD
ATOM     37  H   UNL     1     -46.083  31.400  23.767  1.00  0.00     0.065 H 
ATOM     38  H   UNL     1     -48.447  30.073  24.012  1.00  0.00     0.082 H 
ENDBRANCH  21  24
ENDBRANCH   3  21
TORSDOF 3
ENDMDL
MODEL 2
REMARK VINA RESULT:      -9.6      1.213      2.035
REMARK SMILES O=C(NCc1ccc2cc[nH]c2c1)c1cc(=O)n2ccccc2n1
REMARK SMILES IDX 1 1 2 2 3 3 14 5 15 6 24 7 16 8 23 10 17 11 18 12 22 13
REMARK SMILES IDX 19 14 21 15 20 17 4 21 5 24 6 25 13 26 7 27 12 29 8 31 11 33
REMARK SMILES IDX 9 34 10 35
REMARK H PARENT 3 4 15 9 22 16 19 18 21 19 20 20 4 22 4 23 6 28 13 30 7 32
REMARK H PARENT 11 36 9 37 10 38
REMARK Flexibility Score: inf
ROOT
ATOM      1  O   UNL     1     -47.159  38.675  26.262  1.00  0.00    -0.268 OA
ATOM      2  C   UNL     1     -46.647  38.171  27.253  1.00  0.00     0.270 C 
ATOM      3  N   UNL     1     -47.073  37.000  27.828  1.00  0.00    -0.347 N 
ATOM      4  H   UNL     1     -46.620  36.719  28.693  1.00  0.00     0.164 HD
ENDROOT
BRANCH   2   5
ATOM      5  C   UNL     1     -45.477  38.780  27.987  1.00  0.00     0.136 A 
ATOM      6  C   UNL     1     -45.176  38.246  29.172  1.00  0.00     0.035 A 
ATOM      7  N   UNL     1     -44.802  39.828  27.403  1.00  0.00    -0.225 NA
ATOM      8  C   UNL     1     -44.046  38.808  29.921  1.00  0.00     0.258 A 
ATOM      9  H   UNL     1     -45.714  37.421  29.621  1.00  0.00     0.071 H 
ATOM     10  C   UNL     1     -43.804  40.322  28.068  1.00  0.00     0.140 A 
ATOM     11  O   UNL     1     -43.761  38.324  31.016  1.00  0.00    -0.269 OA
ATOM     12  N   UNL     1     -43.383  39.864  29.312  1.00  0.00    -0.268 N 
ATOM     13  C   UNL     1     -43.045  41.460  27.475  1.00  0.00    -0.019 A 
ATOM     14  C   UNL     1     -42.300  40.449  29.960  1.00  0.00     0.014 A 
ATOM     15  C   UNL     1     -42.010  41.989  28.137  1.00  0.00    -0.057 A 
ATOM     16  H   UNL     1     -43.365  41.824  26.507  1.00  0.00     0.066 H 
ATOM     17  C   UNL     1     -41.621  41.470  29.421  1.00  0.00    -0.045 A 
ATOM     18  H   UNL     1     -42.024  40.040  30.930  1.00  0.00     0.082 H 
ATOM     19  H   UNL     1     -41.444  42.818  27.722  1.00  0.00     0.062 H 
ATOM     20  H   UNL     1     -40.778  41.919  29.936  1.00  0.00     0.064 H 
ENDBRANCH   2   5
BRANCH   3  21
ATOM     21  C   UNL     1     -48.242  36.302  27.365  1.00  0.00     0.043 C 
ATOM     22  H   UNL     1     -48.868  36.065  28.233  1.00  0.00     0.054 H 
ATOM     23  H   UNL     1     -48.831  36.971  26.725  1.00  0.00     0.054 H 
BRANCH  21  24
ATOM     24  C   UNL     1     -47.858  35.051  26.620  1.00  0.00    -0.027 A 
ATOM     25  C   UNL     1     -46.599  34.949  26.013  1.00  0.00    -0.057 A 
ATOM     26  C   UNL     1     -48.786  34.002  26.492  1.00  0.00    -0.033 A 
ATOM     27  C   UNL     1     -46.234  33.806  25.290  1.00  0.00    -0.053 A 
ATOM     28  H   UNL     1     -45.885  35.766  26.097  1.00  0.00     0.063 H 
ATOM     29  C   UNL     1     -48.402  32.868  25.767  1.00  0.00     0.046 A 
ATOM     30  H   UNL     1     -49.772  34.073  26.943  1.00  0.00     0.065 H 
ATOM     31  C   UNL     1     -47.149  32.746  25.166  1.00  0.00    -0.001 A 
ATOM     32  H   UNL     1     -45.251  33.741  24.830  1.00  0.00     0.063 H 
ATOM     33  N   UNL     1     -49.096  31.710  25.494  1.00  0.00    -0.361 N 
ATOM     34  C   UNL     1     -47.115  31.477  24.524  1.00  0.00    -0.037 A 
ATOM     35  C   UNL     1     -48.326  30.862  24.743  1.00  0.00     0.002 A 
ATOM     36  H   UNL     1     -50.038  31.520  25.809  1.00  0.00     0.166 HD
ATOM     37  H   UNL     1     -46.289  31.062  23.962  1.00  0.00     0.065 H 
ATOM     38  H   UNL     1     -48.705  29.899  24.431  1.00  0.00     0.082 H 
ENDBRANCH  21  24
ENDBRANCH   3  21
TORSDOF 3
ENDMDL
MODEL 3
REMARK VINA RESULT:      -9.4      2.159      3.361
REMARK SMILES O=C(NCc1ccc2cc[nH]c2c1)c1cc(=O)n2ccccc2n1
REMARK SMILES IDX 1 1 2 2 3 3 14 5 15 6 24 7 16 8 23 10 17 11 18 12 22 13
REMARK SMILES IDX 19 14 21 15 20 17 4 21 5 24 6 25 13 26 7 27 12 29 8 31 11 33
REMARK SMILES IDX 9 34 10 35
REMARK H PARENT 3 4 15 9 22 16 19 18 21 19 20 20 4 22 4 23 6 28 13 30 7 32
REMARK H PARENT 11 36 9 37 10 38
REMARK Flexibility Score: inf
ROOT
ATOM      1  O   UNL     1     -46.750  39.486  28.477  1.00  0.00    -0.268 OA
ATOM      2  C   UNL     1     -45.574  39.249  28.231  1.00  0.00     0.270 C 
ATOM      3  N   UNL     1     -44.961  38.049  28.483  1.00  0.00    -0.347 N 
ATOM      4  H   UNL     1     -43.962  37.995  28.307  1.00  0.00     0.164 HD
ENDROOT
BRANCH   2   5
ATOM      5  C   UNL     1     -44.633  40.260  27.622  1.00  0.00     0.136 A 
ATOM      6  C   UNL     1     -43.531  40.542  28.321  1.00  0.00     0.035 A 
ATOM      7  N   UNL     1     -44.957  40.821  26.408  1.00  0.00    -0.225 NA
ATOM      8  C   UNL     1     -42.588  41.520  27.767  1.00  0.00     0.258 A 
ATOM      9  H   UNL     1     -43.286  40.094  29.276  1.00  0.00     0.071 H 
ATOM     10  C   UNL     1     -44.121  41.685  25.922  1.00  0.00     0.140 A 
ATOM     11  O   UNL     1     -41.570  41.787  28.405  1.00  0.00    -0.269 OA
ATOM     12  N   UNL     1     -42.938  42.071  26.543  1.00  0.00    -0.268 N 
ATOM     13  C   UNL     1     -44.432  42.319  24.608  1.00  0.00    -0.019 A 
ATOM     14  C   UNL     1     -42.093  43.006  25.954  1.00  0.00     0.014 A 
ATOM     15  C   UNL     1     -43.588  43.213  24.082  1.00  0.00    -0.057 A 
ATOM     16  H   UNL     1     -45.351  42.025  24.117  1.00  0.00     0.066 H 
ATOM     17  C   UNL     1     -42.378  43.570  24.774  1.00  0.00    -0.045 A 
ATOM     18  H   UNL     1     -41.184  43.261  26.494  1.00  0.00     0.082 H 
ATOM     19  H   UNL     1     -43.796  43.685  23.127  1.00  0.00     0.062 H 
ATOM     20  H   UNL     1     -41.711  44.299  24.323  1.00  0.00     0.064 H 
ENDBRANCH   2   5
BRANCH   3  21
ATOM     21  C   UNL     1     -45.635  36.974  29.161  1.00  0.00     0.043 C 
ATOM     22  H   UNL     1     -44.898  36.433  29.766  1.00  0.00     0.054 H 
ATOM     23  H   UNL     1     -46.369  37.393  29.860  1.00  0.00     0.054 H 
BRANCH  21  24
ATOM     24  C   UNL     1     -46.301  36.052  28.174  1.00  0.00    -0.027 A 
ATOM     25  C   UNL     1     -47.679  36.147  27.939  1.00  0.00    -0.057 A 
ATOM     26  C   UNL     1     -45.544  35.061  27.525  1.00  0.00    -0.033 A 
ATOM     27  C   UNL     1     -48.323  35.279  27.048  1.00  0.00    -0.053 A 
ATOM     28  H   UNL     1     -48.269  36.903  28.453  1.00  0.00     0.063 H 
ATOM     29  C   UNL     1     -46.205  34.204  26.636  1.00  0.00     0.046 A 
ATOM     30  H   UNL     1     -44.478  34.964  27.709  1.00  0.00     0.065 H 
ATOM     31  C   UNL     1     -47.574  34.291  26.383  1.00  0.00    -0.001 A 
ATOM     32  H   UNL     1     -49.392  35.370  26.873  1.00  0.00     0.063 H 
ATOM     33  N   UNL     1     -45.718  33.167  25.873  1.00  0.00    -0.361 N 
ATOM     34  C   UNL     1     -47.891  33.274  25.442  1.00  0.00    -0.037 A 
ATOM     35  C   UNL     1     -46.730  32.598  25.146  1.00  0.00     0.002 A 
ATOM     36  H   UNL     1     -44.750  32.876  25.854  1.00  0.00     0.166 HD
ATOM     37  H   UNL     1     -48.868  33.061  25.027  1.00  0.00     0.065 H 
ATOM     38  H   UNL     1     -46.536  31.765  24.484  1.00  0.00     0.082 H 
ENDBRANCH  21  24
ENDBRANCH   3  21
TORSDOF 3
ENDMDL
MODEL 4
REMARK VINA RESULT:      -9.1      3.511      6.102
REMARK SMILES O=C(NCc1ccc2cc[nH]c2c1)c1cc(=O)n2ccccc2n1
REMARK SMILES IDX 1 1 2 2 3 3 14 5 15 6 24 7 16 8 23 10 17 11 18 12 22 13
REMARK SMILES IDX 19 14 21 15 20 17 4 21 5 24 6 25 13 26 7 27 12 29 8 31 11 33
REMARK SMILES IDX 9 34 10 35
REMARK H PARENT 3 4 15 9 22 16 19 18 21 19 20 20 4 22 4 23 6 28 13 30 7 32
REMARK H PARENT 11 36 9 37 10 38
REMARK Flexibility Score: inf
ROOT
ATOM      1  O   UNL     1     -45.837  32.005  24.580  1.00  0.00    -0.268 OA
ATOM      2  C   UNL     1     -46.948  32.417  24.890  1.00  0.00     0.270 C 
ATOM      3  N   UNL     1     -48.123  31.901  24.406  1.00  0.00    -0.347 N 
ATOM      4  H   UNL     1     -48.980  32.374  24.675  1.00  0.00     0.164 HD
ENDROOT
BRANCH   2   5
ATOM      5  C   UNL     1     -47.173  33.564  25.844  1.00  0.00     0.136 A 
ATOM      6  C   UNL     1     -48.443  33.903  26.078  1.00  0.00     0.035 A 
ATOM      7  N   UNL     1     -46.079  34.182  26.408  1.00  0.00    -0.225 NA
ATOM      8  C   UNL     1     -48.708  35.013  27.000  1.00  0.00     0.258 A 
ATOM      9  H   UNL     1     -49.295  33.409  25.629  1.00  0.00     0.071 H 
ATOM     10  C   UNL     1     -46.318  35.163  27.222  1.00  0.00     0.140 A 
ATOM     11  O   UNL     1     -49.875  35.334  27.220  1.00  0.00    -0.269 OA
ATOM     12  N   UNL     1     -47.590  35.620  27.553  1.00  0.00    -0.268 N 
ATOM     13  C   UNL     1     -45.163  35.862  27.855  1.00  0.00    -0.019 A 
ATOM     14  C   UNL     1     -47.761  36.680  28.438  1.00  0.00     0.014 A 
ATOM     15  C   UNL     1     -45.379  36.878  28.700  1.00  0.00    -0.057 A 
ATOM     16  H   UNL     1     -44.170  35.515  27.603  1.00  0.00     0.066 H 
ATOM     17  C   UNL     1     -46.719  37.303  29.003  1.00  0.00    -0.045 A 
ATOM     18  H   UNL     1     -48.783  36.984  28.652  1.00  0.00     0.082 H 
ATOM     19  H   UNL     1     -44.551  37.399  29.171  1.00  0.00     0.062 H 
ATOM     20  H   UNL     1     -46.864  38.129  29.691  1.00  0.00     0.064 H 
ENDBRANCH   2   5
BRANCH   3  21
ATOM     21  C   UNL     1     -48.150  30.875  23.399  1.00  0.00     0.043 C 
ATOM     22  H   UNL     1     -49.131  30.897  22.910  1.00  0.00     0.054 H 
ATOM     23  H   UNL     1     -47.408  31.109  22.625  1.00  0.00     0.054 H 
BRANCH  21  24
ATOM     24  C   UNL     1     -47.881  29.522  24.004  1.00  0.00    -0.027 A 
ATOM     25  C   UNL     1     -46.864  28.708  23.489  1.00  0.00    -0.057 A 
ATOM     26  C   UNL     1     -48.687  29.058  25.059  1.00  0.00    -0.033 A 
ATOM     27  C   UNL     1     -46.618  27.434  24.019  1.00  0.00    -0.053 A 
ATOM     28  H   UNL     1     -46.250  29.059  22.663  1.00  0.00     0.063 H 
ATOM     29  C   UNL     1     -48.425  27.783  25.576  1.00  0.00     0.046 A 
ATOM     30  H   UNL     1     -49.490  29.671  25.458  1.00  0.00     0.065 H 
ATOM     31  C   UNL     1     -47.410  26.964  25.082  1.00  0.00    -0.001 A 
ATOM     32  H   UNL     1     -45.822  26.817  23.611  1.00  0.00     0.063 H 
ATOM     33  N   UNL     1     -49.042  27.093  26.594  1.00  0.00    -0.361 N 
ATOM     34  C   UNL     1     -47.439  25.760  25.838  1.00  0.00    -0.037 A 
ATOM     35  C   UNL     1     -48.453  25.868  26.761  1.00  0.00     0.002 A 
ATOM     36  H   UNL     1     -49.817  27.448  27.138  1.00  0.00     0.166 HD
ATOM     37  H   UNL     1     -46.785  24.907  25.717  1.00  0.00     0.065 H 
ATOM     38  H   UNL     1     -48.805  25.182  27.521  1.00  0.00     0.082 H 
ENDBRANCH  21  24
ENDBRANCH   3  21
TORSDOF 3
ENDMDL
MODEL 5
REMARK VINA RESULT:      -9.1      1.949      2.827
REMARK SMILES O=C(NCc1ccc2cc[nH]c2c1)c1cc(=O)n2ccccc2n1
REMARK SMILES IDX 1 1 2 2 3 3 14 5 15 6 24 7 16 8 23 10 17 11 18 12 22 13
REMARK SMILES IDX 19 14 21 15 20 17 4 21 5 24 6 25 13 26 7 27 12 29 8 31 11 33
REMARK SMILES IDX 9 34 10 35
REMARK H PARENT 3 4 15 9 22 16 19 18 21 19 20 20 4 22 4 23 6 28 13 30 7 32
REMARK H PARENT 11 36 9 37 10 38
REMARK Flexibility Score: inf
ROOT
ATOM      1  O   UNL     1     -44.207  38.842  29.639  1.00  0.00    -0.268 OA
ATOM      2  C   UNL     1     -44.784  38.931  28.562  1.00  0.00     0.270 C 
ATOM      3  N   UNL     1     -45.610  37.964  28.049  1.00  0.00    -0.347 N 
ATOM      4  H   UNL     1     -45.972  38.115  27.113  1.00  0.00     0.164 HD
ENDROOT
BRANCH   2   5
ATOM      5  C   UNL     1     -44.652  40.122  27.644  1.00  0.00     0.136 A 
ATOM      6  C   UNL     1     -45.779  40.566  27.083  1.00  0.00     0.035 A 
ATOM      7  N   UNL     1     -43.406  40.670  27.444  1.00  0.00    -0.225 NA
ATOM      8  C   UNL     1     -45.698  41.722  26.183  1.00  0.00     0.258 A 
ATOM      9  H   UNL     1     -46.755  40.127  27.248  1.00  0.00     0.071 H 
ATOM     10  C   UNL     1     -43.338  41.692  26.648  1.00  0.00     0.140 A 
ATOM     11  O   UNL     1     -46.730  42.139  25.659  1.00  0.00    -0.269 OA
ATOM     12  N   UNL     1     -44.431  42.256  25.996  1.00  0.00    -0.268 N 
ATOM     13  C   UNL     1     -42.007  42.317  26.401  1.00  0.00    -0.019 A 
ATOM     14  C   UNL     1     -44.273  43.354  25.157  1.00  0.00     0.014 A 
ATOM     15  C   UNL     1     -41.907  43.373  25.584  1.00  0.00    -0.057 A 
ATOM     16  H   UNL     1     -41.151  41.885  26.903  1.00  0.00     0.066 H 
ATOM     17  C   UNL     1     -43.076  43.912  24.941  1.00  0.00    -0.045 A 
ATOM     18  H   UNL     1     -45.170  43.744  24.681  1.00  0.00     0.082 H 
ATOM     19  H   UNL     1     -40.948  43.842  25.392  1.00  0.00     0.062 H 
ATOM     20  H   UNL     1     -42.965  44.768  24.283  1.00  0.00     0.064 H 
ENDBRANCH   2   5
BRANCH   3  21
ATOM     21  C   UNL     1     -45.797  36.695  28.700  1.00  0.00     0.043 C 
ATOM     22  H   UNL     1     -44.819  36.338  29.046  1.00  0.00     0.054 H 
ATOM     23  H   UNL     1     -46.415  36.835  29.595  1.00  0.00     0.054 H 
BRANCH  21  24
ATOM     24  C   UNL     1     -46.430  35.700  27.763  1.00  0.00    -0.027 A 
ATOM     25  C   UNL     1     -47.821  35.680  27.591  1.00  0.00    -0.057 A 
ATOM     26  C   UNL     1     -45.626  34.759  27.096  1.00  0.00    -0.033 A 
ATOM     27  C   UNL     1     -48.432  34.743  26.747  1.00  0.00    -0.053 A 
ATOM     28  H   UNL     1     -48.446  36.397  28.118  1.00  0.00     0.063 H 
ATOM     29  C   UNL     1     -46.255  33.832  26.256  1.00  0.00     0.046 A 
ATOM     30  H   UNL     1     -44.548  34.752  27.232  1.00  0.00     0.065 H 
ATOM     31  C   UNL     1     -47.637  33.804  26.066  1.00  0.00    -0.001 A 
ATOM     32  H   UNL     1     -49.512  34.744  26.621  1.00  0.00     0.063 H 
ATOM     33  N   UNL     1     -45.721  32.822  25.489  1.00  0.00    -0.361 N 
ATOM     34  C   UNL     1     -47.913  32.744  25.160  1.00  0.00    -0.037 A 
ATOM     35  C   UNL     1     -46.716  32.157  24.822  1.00  0.00     0.002 A 
ATOM     36  H   UNL     1     -44.735  32.608  25.431  1.00  0.00     0.166 HD
ATOM     37  H   UNL     1     -48.887  32.445  24.796  1.00  0.00     0.065 H 
ATOM     38  H   UNL     1     -46.485  31.328  24.167  1.00  0.00     0.082 H 
ENDBRANCH  21  24
ENDBRANCH   3  21
TORSDOF 3
ENDMDL
MODEL 6
REMARK VINA RESULT:      -9.0      2.469      8.575
REMARK SMILES O=C(NCc1ccc2cc[nH]c2c1)c1cc(=O)n2ccccc2n1
REMARK SMILES IDX 1 1 2 2 3 3 14 5 15 6 24 7 16 8 23 10 17 11 18 12 22 13
REMARK SMILES IDX 19 14 21 15 20 17 4 21 5 24 6 25 13 26 7 27 12 29 8 31 11 33
REMARK SMILES IDX 9 34 10 35
REMARK H PARENT 3 4 15 9 22 16 19 18 21 19 20 20 4 22 4 23 6 28 13 30 7 32
REMARK H PARENT 11 36 9 37 10 38
REMARK Flexibility Score: inf
ROOT
ATOM      1  O   UNL     1     -46.363  33.846  28.294  1.00  0.00    -0.268 OA
ATOM      2  C   UNL     1     -47.087  33.987  27.317  1.00  0.00     0.270 C 
ATOM      3  N   UNL     1     -47.908  35.068  27.116  1.00  0.00    -0.347 N 
ATOM      4  H   UNL     1     -48.519  35.039  26.306  1.00  0.00     0.164 HD
ENDROOT
BRANCH   2   5
ATOM      5  C   UNL     1     -47.180  32.978  26.198  1.00  0.00     0.136 A 
ATOM      6  C   UNL     1     -46.483  33.250  25.093  1.00  0.00     0.035 A 
ATOM      7  N   UNL     1     -47.960  31.858  26.379  1.00  0.00    -0.225 NA
ATOM      8  C   UNL     1     -46.545  32.296  23.979  1.00  0.00     0.258 A 
ATOM      9  H   UNL     1     -45.872  34.134  24.962  1.00  0.00     0.071 H 
ATOM     10  C   UNL     1     -48.013  31.018  25.392  1.00  0.00     0.140 A 
ATOM     11  O   UNL     1     -45.907  32.539  22.955  1.00  0.00    -0.269 OA
ATOM     12  N   UNL     1     -47.339  31.177  24.186  1.00  0.00    -0.268 N 
ATOM     13  C   UNL     1     -48.847  29.791  25.544  1.00  0.00    -0.019 A 
ATOM     14  C   UNL     1     -47.447  30.227  23.176  1.00  0.00     0.014 A 
ATOM     15  C   UNL     1     -48.919  28.906  24.543  1.00  0.00    -0.057 A 
ATOM     16  H   UNL     1     -49.375  29.659  26.479  1.00  0.00     0.066 H 
ATOM     17  C   UNL     1     -48.197  29.127  23.318  1.00  0.00    -0.045 A 
ATOM     18  H   UNL     1     -46.892  30.414  22.259  1.00  0.00     0.082 H 
ATOM     19  H   UNL     1     -49.521  28.007  24.634  1.00  0.00     0.062 H 
ATOM     20  H   UNL     1     -48.274  28.392  22.524  1.00  0.00     0.064 H 
ENDBRANCH   2   5
BRANCH   3  21
ATOM     21  C   UNL     1     -48.066  36.101  28.104  1.00  0.00     0.043 C 
ATOM     22  H   UNL     1     -49.057  36.551  27.977  1.00  0.00     0.054 H 
ATOM     23  H   UNL     1     -48.051  35.650  29.104  1.00  0.00     0.054 H 
BRANCH  21  24
ATOM     24  C   UNL     1     -46.983  37.139  27.971  1.00  0.00    -0.027 A 
ATOM     25  C   UNL     1     -45.967  37.227  28.931  1.00  0.00    -0.057 A 
ATOM     26  C   UNL     1     -47.022  38.054  26.904  1.00  0.00    -0.033 A 
ATOM     27  C   UNL     1     -44.967  38.204  28.841  1.00  0.00    -0.053 A 
ATOM     28  H   UNL     1     -45.944  36.530  29.766  1.00  0.00     0.063 H 
ATOM     29  C   UNL     1     -46.014  39.023  26.830  1.00  0.00     0.046 A 
ATOM     30  H   UNL     1     -47.812  38.010  26.160  1.00  0.00     0.065 H 
ATOM     31  C   UNL     1     -44.989  39.118  27.772  1.00  0.00    -0.001 A 
ATOM     32  H   UNL     1     -44.183  38.255  29.592  1.00  0.00     0.063 H 
ATOM     33  N   UNL     1     -45.806  40.022  25.906  1.00  0.00    -0.361 N 
ATOM     34  C   UNL     1     -44.160  40.205  27.381  1.00  0.00    -0.037 A 
ATOM     35  C   UNL     1     -44.687  40.743  26.230  1.00  0.00     0.002 A 
ATOM     36  H   UNL     1     -46.398  40.191  25.103  1.00  0.00     0.166 HD
ATOM     37  H   UNL     1     -43.273  40.555  27.892  1.00  0.00     0.065 H 
ATOM     38  H   UNL     1     -44.365  41.572  25.614  1.00  0.00     0.082 H 
ENDBRANCH  21  24
ENDBRANCH   3  21
TORSDOF 3
ENDMDL
MODEL 7
REMARK VINA RESULT:      -8.9      3.892     10.013
REMARK SMILES O=C(NCc1ccc2cc[nH]c2c1)c1cc(=O)n2ccccc2n1
REMARK SMILES IDX 1 1 2 2 3 3 14 5 15 6 24 7 16 8 23 10 17 11 18 12 22 13
REMARK SMILES IDX 19 14 21 15 20 17 4 21 5 24 6 25 13 26 7 27 12 29 8 31 11 33
REMARK SMILES IDX 9 34 10 35
REMARK H PARENT 3 4 15 9 22 16 19 18 21 19 20 20 4 22 4 23 6 28 13 30 7 32
REMARK H PARENT 11 36 9 37 10 38
REMARK Flexibility Score: inf
ROOT
ATOM      1  O   UNL     1     -49.901  31.740  23.858  1.00  0.00    -0.268 OA
ATOM      2  C   UNL     1     -49.176  31.364  24.770  1.00  0.00     0.270 C 
ATOM      3  N   UNL     1     -48.885  32.113  25.881  1.00  0.00    -0.347 N 
ATOM      4  H   UNL     1     -48.210  31.727  26.534  1.00  0.00     0.164 HD
ENDROOT
BRANCH   2   5
ATOM      5  C   UNL     1     -48.491  30.019  24.786  1.00  0.00     0.136 A 
ATOM      6  C   UNL     1     -47.517  29.837  23.891  1.00  0.00     0.035 A 
ATOM      7  N   UNL     1     -48.898  29.079  25.705  1.00  0.00    -0.225 NA
ATOM      8  C   UNL     1     -46.824  28.544  23.870  1.00  0.00     0.258 A 
ATOM      9  H   UNL     1     -47.205  30.585  23.173  1.00  0.00     0.071 H 
ATOM     10  C   UNL     1     -48.283  27.937  25.683  1.00  0.00     0.140 A 
ATOM     11  O   UNL     1     -45.927  28.366  23.048  1.00  0.00    -0.269 OA
ATOM     12  N   UNL     1     -47.254  27.613  24.805  1.00  0.00    -0.268 N 
ATOM     13  C   UNL     1     -48.693  26.887  26.660  1.00  0.00    -0.019 A 
ATOM     14  C   UNL     1     -46.644  26.364  24.848  1.00  0.00     0.014 A 
ATOM     15  C   UNL     1     -48.076  25.700  26.662  1.00  0.00    -0.057 A 
ATOM     16  H   UNL     1     -49.493  27.129  27.348  1.00  0.00     0.066 H 
ATOM     17  C   UNL     1     -47.016  25.426  25.728  1.00  0.00    -0.045 A 
ATOM     18  H   UNL     1     -45.846  26.178  24.132  1.00  0.00     0.082 H 
ATOM     19  H   UNL     1     -48.359  24.923  27.365  1.00  0.00     0.062 H 
ATOM     20  H   UNL     1     -46.534  24.454  25.752  1.00  0.00     0.064 H 
ENDBRANCH   2   5
BRANCH   3  21
ATOM     21  C   UNL     1     -49.338  33.470  26.028  1.00  0.00     0.043 C 
ATOM     22  H   UNL     1     -49.693  33.822  25.052  1.00  0.00     0.054 H 
ATOM     23  H   UNL     1     -50.203  33.491  26.703  1.00  0.00     0.054 H 
BRANCH  21  24
ATOM     24  C   UNL     1     -48.233  34.351  26.548  1.00  0.00    -0.027 A 
ATOM     25  C   UNL     1     -46.893  34.002  26.334  1.00  0.00    -0.057 A 
ATOM     26  C   UNL     1     -48.549  35.500  27.293  1.00  0.00    -0.033 A 
ATOM     27  C   UNL     1     -45.850  34.792  26.835  1.00  0.00    -0.053 A 
ATOM     28  H   UNL     1     -46.647  33.104  25.771  1.00  0.00     0.063 H 
ATOM     29  C   UNL     1     -47.493  36.277  27.785  1.00  0.00     0.046 A 
ATOM     30  H   UNL     1     -49.583  35.775  27.483  1.00  0.00     0.065 H 
ATOM     31  C   UNL     1     -46.154  35.950  27.572  1.00  0.00    -0.001 A 
ATOM     32  H   UNL     1     -44.816  34.509  26.655  1.00  0.00     0.063 H 
ATOM     33  N   UNL     1     -47.512  37.437  28.526  1.00  0.00    -0.361 N 
ATOM     34  C   UNL     1     -45.371  36.953  28.209  1.00  0.00    -0.037 A 
ATOM     35  C   UNL     1     -46.234  37.854  28.788  1.00  0.00     0.002 A 
ATOM     36  H   UNL     1     -48.354  37.909  28.828  1.00  0.00     0.166 HD
ATOM     37  H   UNL     1     -44.291  37.005  28.238  1.00  0.00     0.065 H 
ATOM     38  H   UNL     1     -46.051  38.753  29.361  1.00  0.00     0.082 H 
ENDBRANCH  21  24
ENDBRANCH   3  21
TORSDOF 3
ENDMDL
