MODEL 1
REMARK VINA RESULT:      -8.3      0.000      0.000
REMARK SMILES Cc1cc(NCCN(C)CCCCCc2ccccc2)c2ccc(OCc3cncc(-n4ccc5c(N)ncnc54)c3)cc2n1
REMARK SMILES IDX 6 1 5 4 4 6 2 7 3 8 45 9 44 11 21 12 43 13 22 14 24 15 23 17
REMARK SMILES IDX 1 20 25 24 26 25 27 28 28 29 42 30 29 31 31 33 30 35 32 37
REMARK SMILES IDX 33 38 41 39 34 40 35 42 40 43 36 45 39 46 38 47 37 49 7 52
REMARK SMILES IDX 8 55 9 56 10 60 11 63 12 66 13 69 14 72 15 75 16 76 20 77
REMARK SMILES IDX 17 78 19 80 18 82
REMARK H PARENT 6 2 6 3 5 5 3 10 43 16 22 18 23 19 1 21 1 22 1 23 26 26 26 27
REMARK H PARENT 28 32 42 34 30 36 33 41 34 44 39 48 37 50 37 51 7 53 7 54 9 57
REMARK H PARENT 9 58 9 59 10 61 10 62 11 64 11 65 12 67 12 68 13 70 13 71
REMARK H PARENT 14 73 14 74 16 79 20 81 17 83 19 84 18 85
REMARK Flexibility Score: inf
ROOT
ATOM      1  C   UNL     1     -46.229  31.369  23.481  1.00  0.00     0.027 C 
ATOM      2  H   UNL     1     -46.648  32.231  22.953  1.00  0.00     0.050 H 
ATOM      3  H   UNL     1     -45.170  31.604  23.645  1.00  0.00     0.050 H 
ENDROOT
BRANCH   1   4
ATOM      4  N   UNL     1     -46.845  31.219  24.804  1.00  0.00    -0.383 N 
ATOM      5  H   UNL     1     -47.104  30.253  24.982  1.00  0.00     0.160 HD
BRANCH   4   6
ATOM      6  C   UNL     1     -47.802  32.124  25.295  1.00  0.00     0.045 A 
ATOM      7  C   UNL     1     -50.057  32.970  25.417  1.00  0.00     0.040 A 
ATOM      8  C   UNL     1     -49.148  32.041  24.930  1.00  0.00    -0.017 A 
ATOM      9  N   UNL     1     -49.697  33.989  26.221  1.00  0.00    -0.253 NA
ATOM     10  H   UNL     1     -49.513  31.259  24.276  1.00  0.00     0.066 H 
ATOM     11  C   UNL     1     -48.402  34.133  26.531  1.00  0.00     0.076 A 
ATOM     12  C   UNL     1     -47.400  33.243  26.083  1.00  0.00     0.024 A 
ATOM     13  C   UNL     1     -48.054  35.221  27.325  1.00  0.00     0.007 A 
ATOM     14  C   UNL     1     -46.060  33.524  26.441  1.00  0.00    -0.047 A 
ATOM     15  C   UNL     1     -46.735  35.475  27.693  1.00  0.00     0.122 A 
ATOM     16  H   UNL     1     -48.864  35.874  27.632  1.00  0.00     0.069 H 
ATOM     17  C   UNL     1     -45.737  34.624  27.237  1.00  0.00    -0.019 A 
ATOM     18  H   UNL     1     -45.244  32.899  26.090  1.00  0.00     0.063 H 
ATOM     19  H   UNL     1     -44.698  34.817  27.494  1.00  0.00     0.066 H 
BRANCH   7  20
ATOM     20  C   UNL     1     -51.508  32.870  25.046  1.00  0.00    -0.022 C 
ATOM     21  H   UNL     1     -51.812  33.747  24.468  1.00  0.00     0.030 H 
ATOM     22  H   UNL     1     -52.135  32.817  25.942  1.00  0.00     0.030 H 
ATOM     23  H   UNL     1     -51.684  31.967  24.452  1.00  0.00     0.030 H 
ENDBRANCH   7  20
BRANCH  15  24
ATOM     24  O   UNL     1     -46.289  36.515  28.461  1.00  0.00    -0.489 OA
BRANCH  24  25
ATOM     25  C   UNL     1     -47.251  37.358  29.099  1.00  0.00     0.115 C 
ATOM     26  H   UNL     1     -46.845  37.605  30.087  1.00  0.00     0.076 H 
ATOM     27  H   UNL     1     -48.188  36.819  29.290  1.00  0.00     0.076 H 
BRANCH  25  28
ATOM     28  C   UNL     1     -47.467  38.654  28.364  1.00  0.00     0.010 A 
ATOM     29  C   UNL     1     -48.741  39.162  28.154  1.00  0.00     0.034 A 
ATOM     30  C   UNL     1     -46.387  39.368  27.821  1.00  0.00    -0.028 A 
ATOM     31  N   UNL     1     -48.994  40.300  27.475  1.00  0.00    -0.262 NA
ATOM     32  H   UNL     1     -49.623  38.654  28.538  1.00  0.00     0.084 H 
ATOM     33  C   UNL     1     -46.601  40.557  27.118  1.00  0.00     0.066 A 
ATOM     34  H   UNL     1     -45.390  38.974  27.987  1.00  0.00     0.065 H 
ATOM     35  C   UNL     1     -47.924  40.970  26.981  1.00  0.00     0.051 A 
ATOM     36  H   UNL     1     -48.214  41.868  26.444  1.00  0.00     0.086 H 
BRANCH  33  37
ATOM     37  N   UNL     1     -45.529  41.325  26.560  1.00  0.00    -0.300 N 
ATOM     38  C   UNL     1     -45.616  42.100  25.411  1.00  0.00     0.012 A 
ATOM     39  C   UNL     1     -44.219  41.451  27.038  1.00  0.00     0.150 A 
ATOM     40  C   UNL     1     -44.406  42.707  25.168  1.00  0.00    -0.031 A 
ATOM     41  H   UNL     1     -46.536  42.194  24.852  1.00  0.00     0.082 H 
ATOM     42  C   UNL     1     -43.516  42.300  26.186  1.00  0.00     0.061 A 
ATOM     43  N   UNL     1     -43.690  40.852  28.124  1.00  0.00    -0.218 NA
ATOM     44  H   UNL     1     -44.192  43.380  24.348  1.00  0.00     0.065 H 
ATOM     45  C   UNL     1     -42.172  42.556  26.496  1.00  0.00     0.136 A 
ATOM     46  C   UNL     1     -42.403  41.173  28.322  1.00  0.00     0.120 A 
ATOM     47  N   UNL     1     -41.626  41.975  27.577  1.00  0.00    -0.219 NA
ATOM     48  H   UNL     1     -41.927  40.726  29.189  1.00  0.00     0.106 H 
BRANCH  45  49
ATOM     49  N   UNL     1     -41.350  43.373  25.732  1.00  0.00    -0.383 N 
ATOM     50  H   UNL     1     -40.988  42.949  24.889  1.00  0.00     0.158 HD
ATOM     51  H   UNL     1     -40.677  43.851  26.320  1.00  0.00     0.158 HD
ENDBRANCH  45  49
ENDBRANCH  33  37
ENDBRANCH  25  28
ENDBRANCH  24  25
ENDBRANCH  15  24
ENDBRANCH   4   6
ENDBRANCH   1   4
BRANCH   1  52
ATOM     52  C   UNL     1     -46.320  30.067  22.650  1.00  0.00     0.015 C 
ATOM     53  H   UNL     1     -45.312  29.630  22.645  1.00  0.00     0.045 H 
ATOM     54  H   UNL     1     -46.967  29.334  23.146  1.00  0.00     0.045 H 
BRANCH  52  55
ATOM     55  N   UNL     1     -46.757  30.279  21.254  1.00  0.00    -0.305 NA
BRANCH  55  56
ATOM     56  C   UNL     1     -46.224  31.532  20.713  1.00  0.00    -0.013 C 
ATOM     57  H   UNL     1     -45.452  31.356  19.955  1.00  0.00     0.039 H 
ATOM     58  H   UNL     1     -47.016  32.138  20.262  1.00  0.00     0.039 H 
ATOM     59  H   UNL     1     -45.796  32.156  21.502  1.00  0.00     0.039 H 
ENDBRANCH  55  56
BRANCH  55  60
ATOM     60  C   UNL     1     -48.227  30.242  21.170  1.00  0.00    -0.002 C 
ATOM     61  H   UNL     1     -48.556  30.265  20.123  1.00  0.00     0.043 H 
ATOM     62  H   UNL     1     -48.646  31.143  21.637  1.00  0.00     0.043 H 
BRANCH  60  63
ATOM     63  C   UNL     1     -48.867  29.033  21.874  1.00  0.00    -0.040 C 
ATOM     64  H   UNL     1     -48.119  28.525  22.494  1.00  0.00     0.028 H 
ATOM     65  H   UNL     1     -49.162  28.305  21.107  1.00  0.00     0.028 H 
BRANCH  63  66
ATOM     66  C   UNL     1     -50.088  29.357  22.747  1.00  0.00    -0.052 C 
ATOM     67  H   UNL     1     -50.995  28.990  22.253  1.00  0.00     0.027 H 
ATOM     68  H   UNL     1     -50.187  30.447  22.803  1.00  0.00     0.027 H 
BRANCH  66  69
ATOM     69  C   UNL     1     -49.990  28.790  24.167  1.00  0.00    -0.049 C 
ATOM     70  H   UNL     1     -50.816  29.195  24.767  1.00  0.00     0.027 H 
ATOM     71  H   UNL     1     -49.061  29.118  24.645  1.00  0.00     0.027 H 
BRANCH  69  72
ATOM     72  C   UNL     1     -50.076  27.258  24.203  1.00  0.00    -0.028 C 
ATOM     73  H   UNL     1     -51.040  26.963  24.637  1.00  0.00     0.032 H 
ATOM     74  H   UNL     1     -50.076  26.866  23.178  1.00  0.00     0.032 H 
BRANCH  72  75
ATOM     75  C   UNL     1     -48.981  26.606  25.012  1.00  0.00    -0.048 A 
ATOM     76  C   UNL     1     -49.291  25.656  25.996  1.00  0.00    -0.059 A 
ATOM     77  C   UNL     1     -47.638  26.940  24.794  1.00  0.00    -0.059 A 
ATOM     78  C   UNL     1     -48.279  25.060  26.751  1.00  0.00    -0.062 A 
ATOM     79  H   UNL     1     -50.326  25.378  26.183  1.00  0.00     0.063 H 
ATOM     80  C   UNL     1     -46.627  26.342  25.549  1.00  0.00    -0.062 A 
ATOM     81  H   UNL     1     -47.371  27.676  24.039  1.00  0.00     0.063 H 
ATOM     82  C   UNL     1     -46.948  25.403  26.526  1.00  0.00    -0.062 A 
ATOM     83  H   UNL     1     -48.530  24.328  27.513  1.00  0.00     0.062 H 
ATOM     84  H   UNL     1     -45.590  26.612  25.373  1.00  0.00     0.062 H 
ATOM     85  H   UNL     1     -46.160  24.938  27.114  1.00  0.00     0.062 H 
ENDBRANCH  72  75
ENDBRANCH  69  72
ENDBRANCH  66  69
ENDBRANCH  63  66
ENDBRANCH  60  63
ENDBRANCH  55  60
ENDBRANCH  52  55
ENDBRANCH   1  52
TORSDOF 17
ENDMDL
MODEL 2
REMARK VINA RESULT:      -7.7      2.431      4.176
REMARK SMILES Cc1cc(NCCN(C)CCCCCc2ccccc2)c2ccc(OCc3cncc(-n4ccc5c(N)ncnc54)c3)cc2n1
REMARK SMILES IDX 6 1 5 4 4 6 2 7 3 8 45 9 44 11 21 12 43 13 22 14 24 15 23 17
REMARK SMILES IDX 1 20 25 24 26 25 27 28 28 29 42 30 29 31 31 33 30 35 32 37
REMARK SMILES IDX 33 38 41 39 34 40 35 42 40 43 36 45 39 46 38 47 37 49 7 52
REMARK SMILES IDX 8 55 9 56 10 60 11 63 12 66 13 69 14 72 15 75 16 76 20 77
REMARK SMILES IDX 17 78 19 80 18 82
REMARK H PARENT 6 2 6 3 5 5 3 10 43 16 22 18 23 19 1 21 1 22 1 23 26 26 26 27
REMARK H PARENT 28 32 42 34 30 36 33 41 34 44 39 48 37 50 37 51 7 53 7 54 9 57
REMARK H PARENT 9 58 9 59 10 61 10 62 11 64 11 65 12 67 12 68 13 70 13 71
REMARK H PARENT 14 73 14 74 16 79 20 81 17 83 19 84 18 85
REMARK Flexibility Score: inf
ROOT
ATOM      1  C   UNL     1     -46.807  34.758  25.838  1.00  0.00     0.027 C 
ATOM      2  H   UNL     1     -47.376  35.200  25.014  1.00  0.00     0.050 H 
ATOM      3  H   UNL     1     -45.751  34.952  25.611  1.00  0.00     0.050 H 
ENDROOT
BRANCH   1   4
ATOM      4  N   UNL     1     -47.107  35.441  27.102  1.00  0.00    -0.383 N 
ATOM      5  H   UNL     1     -46.788  34.898  27.899  1.00  0.00     0.160 HD
BRANCH   4   6
ATOM      6  C   UNL     1     -48.344  36.064  27.345  1.00  0.00     0.045 A 
ATOM      7  C   UNL     1     -50.755  36.059  27.364  1.00  0.00     0.040 A 
ATOM      8  C   UNL     1     -49.555  35.400  27.136  1.00  0.00    -0.017 A 
ATOM      9  N   UNL     1     -50.816  37.345  27.761  1.00  0.00    -0.253 NA
ATOM     10  H   UNL     1     -49.589  34.369  26.804  1.00  0.00     0.066 H 
ATOM     11  C   UNL     1     -49.672  38.026  27.902  1.00  0.00     0.076 A 
ATOM     12  C   UNL     1     -48.400  37.447  27.690  1.00  0.00     0.024 A 
ATOM     13  C   UNL     1     -49.768  39.364  28.267  1.00  0.00     0.007 A 
ATOM     14  C   UNL     1     -47.265  38.280  27.829  1.00  0.00    -0.047 A 
ATOM     15  C   UNL     1     -48.643  40.170  28.426  1.00  0.00     0.122 A 
ATOM     16  H   UNL     1     -50.771  39.757  28.408  1.00  0.00     0.069 H 
ATOM     17  C   UNL     1     -47.389  39.621  28.194  1.00  0.00    -0.019 A 
ATOM     18  H   UNL     1     -46.265  37.900  27.637  1.00  0.00     0.063 H 
ATOM     19  H   UNL     1     -46.499  40.238  28.290  1.00  0.00     0.066 H 
BRANCH   7  20
ATOM     20  C   UNL     1     -52.057  35.341  27.164  1.00  0.00    -0.022 C 
ATOM     21  H   UNL     1     -52.890  35.968  27.497  1.00  0.00     0.030 H 
ATOM     22  H   UNL     1     -52.081  34.409  27.739  1.00  0.00     0.030 H 
ATOM     23  H   UNL     1     -52.193  35.093  26.106  1.00  0.00     0.030 H 
ENDBRANCH   7  20
BRANCH  15  24
ATOM     24  O   UNL     1     -48.630  41.492  28.775  1.00  0.00    -0.489 OA
BRANCH  24  25
ATOM     25  C   UNL     1     -49.451  42.404  28.041  1.00  0.00     0.115 C 
ATOM     26  H   UNL     1     -50.023  42.976  28.782  1.00  0.00     0.076 H 
ATOM     27  H   UNL     1     -50.197  41.870  27.438  1.00  0.00     0.076 H 
BRANCH  25  28
ATOM     28  C   UNL     1     -48.649  43.389  27.233  1.00  0.00     0.010 A 
ATOM     29  C   UNL     1     -49.054  44.708  27.094  1.00  0.00     0.034 A 
ATOM     30  C   UNL     1     -47.489  42.991  26.550  1.00  0.00    -0.028 A 
ATOM     31  N   UNL     1     -48.393  45.624  26.356  1.00  0.00    -0.262 NA
ATOM     32  H   UNL     1     -49.950  45.080  27.588  1.00  0.00     0.084 H 
ATOM     33  C   UNL     1     -46.767  43.908  25.781  1.00  0.00     0.066 A 
ATOM     34  H   UNL     1     -47.169  41.961  26.660  1.00  0.00     0.065 H 
ATOM     35  C   UNL     1     -47.268  45.207  25.726  1.00  0.00     0.051 A 
ATOM     36  H   UNL     1     -46.802  46.000  25.150  1.00  0.00     0.086 H 
BRANCH  33  37
ATOM     37  N   UNL     1     -45.570  43.551  25.080  1.00  0.00    -0.300 N 
ATOM     38  C   UNL     1     -44.923  42.325  25.177  1.00  0.00     0.012 A 
ATOM     39  C   UNL     1     -44.830  44.332  24.184  1.00  0.00     0.150 A 
ATOM     40  C   UNL     1     -43.814  42.322  24.363  1.00  0.00    -0.031 A 
ATOM     41  H   UNL     1     -45.303  41.524  25.794  1.00  0.00     0.082 H 
ATOM     42  C   UNL     1     -43.743  43.585  23.736  1.00  0.00     0.061 A 
ATOM     43  N   UNL     1     -45.088  45.603  23.811  1.00  0.00    -0.218 NA
ATOM     44  H   UNL     1     -43.133  41.491  24.230  1.00  0.00     0.065 H 
ATOM     45  C   UNL     1     -42.871  44.197  22.824  1.00  0.00     0.136 A 
ATOM     46  C   UNL     1     -44.192  46.080  22.935  1.00  0.00     0.120 A 
ATOM     47  N   UNL     1     -43.113  45.460  22.433  1.00  0.00    -0.219 NA
ATOM     48  H   UNL     1     -44.355  47.097  22.591  1.00  0.00     0.106 H 
BRANCH  45  49
ATOM     49  N   UNL     1     -41.745  43.576  22.303  1.00  0.00    -0.383 N 
ATOM     50  H   UNL     1     -40.890  43.738  22.816  1.00  0.00     0.158 HD
ATOM     51  H   UNL     1     -41.699  43.706  21.298  1.00  0.00     0.158 HD
ENDBRANCH  45  49
ENDBRANCH  33  37
ENDBRANCH  25  28
ENDBRANCH  24  25
ENDBRANCH  15  24
ENDBRANCH   4   6
ENDBRANCH   1   4
BRANCH   1  52
ATOM     52  C   UNL     1     -47.014  33.229  25.945  1.00  0.00     0.015 C 
ATOM     53  H   UNL     1     -46.050  32.806  26.259  1.00  0.00     0.045 H 
ATOM     54  H   UNL     1     -47.726  32.988  26.743  1.00  0.00     0.045 H 
BRANCH  52  55
ATOM     55  N   UNL     1     -47.426  32.592  24.676  1.00  0.00    -0.305 NA
BRANCH  55  56
ATOM     56  C   UNL     1     -48.741  31.958  24.801  1.00  0.00    -0.013 C 
ATOM     57  H   UNL     1     -48.662  30.904  25.092  1.00  0.00     0.039 H 
ATOM     58  H   UNL     1     -49.360  32.473  25.542  1.00  0.00     0.039 H 
ATOM     59  H   UNL     1     -49.302  32.016  23.864  1.00  0.00     0.039 H 
ENDBRANCH  55  56
BRANCH  55  60
ATOM     60  C   UNL     1     -46.405  31.624  24.238  1.00  0.00    -0.002 C 
ATOM     61  H   UNL     1     -46.502  30.681  24.792  1.00  0.00     0.043 H 
ATOM     62  H   UNL     1     -45.405  32.010  24.475  1.00  0.00     0.043 H 
BRANCH  60  63
ATOM     63  C   UNL     1     -46.426  31.329  22.728  1.00  0.00    -0.040 C 
ATOM     64  H   UNL     1     -45.519  31.727  22.259  1.00  0.00     0.028 H 
ATOM     65  H   UNL     1     -47.261  31.884  22.281  1.00  0.00     0.028 H 
BRANCH  63  66
ATOM     66  C   UNL     1     -46.560  29.846  22.355  1.00  0.00    -0.052 C 
ATOM     67  H   UNL     1     -45.731  29.560  21.698  1.00  0.00     0.027 H 
ATOM     68  H   UNL     1     -47.477  29.723  21.766  1.00  0.00     0.027 H 
BRANCH  66  69
ATOM     69  C   UNL     1     -46.619  28.914  23.570  1.00  0.00    -0.049 C 
ATOM     70  H   UNL     1     -46.484  29.513  24.481  1.00  0.00     0.027 H 
ATOM     71  H   UNL     1     -45.794  28.194  23.540  1.00  0.00     0.027 H 
BRANCH  69  72
ATOM     72  C   UNL     1     -47.953  28.165  23.680  1.00  0.00    -0.028 C 
ATOM     73  H   UNL     1     -48.746  28.880  23.940  1.00  0.00     0.032 H 
ATOM     74  H   UNL     1     -48.228  27.757  22.700  1.00  0.00     0.032 H 
BRANCH  72  75
ATOM     75  C   UNL     1     -47.954  27.071  24.721  1.00  0.00    -0.048 A 
ATOM     76  C   UNL     1     -49.160  26.609  25.270  1.00  0.00    -0.059 A 
ATOM     77  C   UNL     1     -46.751  26.502  25.157  1.00  0.00    -0.059 A 
ATOM     78  C   UNL     1     -49.159  25.604  26.238  1.00  0.00    -0.062 A 
ATOM     79  H   UNL     1     -50.108  27.034  24.947  1.00  0.00     0.063 H 
ATOM     80  C   UNL     1     -46.752  25.496  26.125  1.00  0.00    -0.062 A 
ATOM     81  H   UNL     1     -45.802  26.844  24.749  1.00  0.00     0.063 H 
ATOM     82  C   UNL     1     -47.955  25.048  26.665  1.00  0.00    -0.062 A 
ATOM     83  H   UNL     1     -50.098  25.256  26.660  1.00  0.00     0.062 H 
ATOM     84  H   UNL     1     -45.812  25.064  26.457  1.00  0.00     0.062 H 
ATOM     85  H   UNL     1     -47.955  24.265  27.420  1.00  0.00     0.062 H 
ENDBRANCH  72  75
ENDBRANCH  69  72
ENDBRANCH  66  69
ENDBRANCH  63  66
ENDBRANCH  60  63
ENDBRANCH  55  60
ENDBRANCH  52  55
ENDBRANCH   1  52
TORSDOF 17
ENDMDL
MODEL 3
REMARK VINA RESULT:      -7.7      1.588      3.158
REMARK SMILES Cc1cc(NCCN(C)CCCCCc2ccccc2)c2ccc(OCc3cncc(-n4ccc5c(N)ncnc54)c3)cc2n1
REMARK SMILES IDX 6 1 5 4 4 6 2 7 3 8 45 9 44 11 21 12 43 13 22 14 24 15 23 17
REMARK SMILES IDX 1 20 25 24 26 25 27 28 28 29 42 30 29 31 31 33 30 35 32 37
REMARK SMILES IDX 33 38 41 39 34 40 35 42 40 43 36 45 39 46 38 47 37 49 7 52
REMARK SMILES IDX 8 55 9 56 10 60 11 63 12 66 13 69 14 72 15 75 16 76 20 77
REMARK SMILES IDX 17 78 19 80 18 82
REMARK H PARENT 6 2 6 3 5 5 3 10 43 16 22 18 23 19 1 21 1 22 1 23 26 26 26 27
REMARK H PARENT 28 32 42 34 30 36 33 41 34 44 39 48 37 50 37 51 7 53 7 54 9 57
REMARK H PARENT 9 58 9 59 10 61 10 62 11 64 11 65 12 67 12 68 13 70 13 71
REMARK H PARENT 14 73 14 74 16 79 20 81 17 83 19 84 18 85
REMARK Flexibility Score: inf
ROOT
ATOM      1  C   UNL     1     -47.721  28.821  22.078  1.00  0.00     0.027 C 
ATOM      2  H   UNL     1     -48.678  28.342  21.847  1.00  0.00     0.050 H 
ATOM      3  H   UNL     1     -47.045  28.550  21.257  1.00  0.00     0.050 H 
ENDROOT
BRANCH   1   4
ATOM      4  N   UNL     1     -47.854  30.283  22.060  1.00  0.00    -0.383 N 
ATOM      5  H   UNL     1     -46.963  30.731  21.870  1.00  0.00     0.160 HD
BRANCH   4   6
ATOM      6  C   UNL     1     -48.606  30.981  23.022  1.00  0.00     0.045 A 
ATOM      7  C   UNL     1     -50.703  31.761  23.920  1.00  0.00     0.040 A 
ATOM      8  C   UNL     1     -50.000  31.040  22.965  1.00  0.00    -0.017 A 
ATOM      9  N   UNL     1     -50.096  32.447  24.908  1.00  0.00    -0.253 NA
ATOM     10  H   UNL     1     -50.560  30.527  22.192  1.00  0.00     0.066 H 
ATOM     11  C   UNL     1     -48.757  32.463  24.946  1.00  0.00     0.076 A 
ATOM     12  C   UNL     1     -47.952  31.765  24.018  1.00  0.00     0.024 A 
ATOM     13  C   UNL     1     -48.158  33.217  25.950  1.00  0.00     0.007 A 
ATOM     14  C   UNL     1     -46.548  31.895  24.135  1.00  0.00    -0.047 A 
ATOM     15  C   UNL     1     -46.774  33.319  26.072  1.00  0.00     0.122 A 
ATOM     16  H   UNL     1     -48.826  33.738  26.628  1.00  0.00     0.069 H 
ATOM     17  C   UNL     1     -45.971  32.659  25.150  1.00  0.00    -0.019 A 
ATOM     18  H   UNL     1     -45.881  31.415  23.424  1.00  0.00     0.063 H 
ATOM     19  H   UNL     1     -44.889  32.743  25.213  1.00  0.00     0.066 H 
BRANCH   7  20
ATOM     20  C   UNL     1     -52.202  31.807  23.876  1.00  0.00    -0.022 C 
ATOM     21  H   UNL     1     -52.572  32.663  24.449  1.00  0.00     0.030 H 
ATOM     22  H   UNL     1     -52.632  30.897  24.307  1.00  0.00     0.030 H 
ATOM     23  H   UNL     1     -52.547  31.890  22.840  1.00  0.00     0.030 H 
ENDBRANCH   7  20
BRANCH  15  24
ATOM     24  O   UNL     1     -46.089  34.034  27.014  1.00  0.00    -0.489 OA
BRANCH  24  25
ATOM     25  C   UNL     1     -46.794  34.502  28.166  1.00  0.00     0.115 C 
ATOM     26  H   UNL     1     -46.179  34.243  29.037  1.00  0.00     0.076 H 
ATOM     27  H   UNL     1     -47.740  33.962  28.300  1.00  0.00     0.076 H 
BRANCH  25  28
ATOM     28  C   UNL     1     -46.974  35.997  28.171  1.00  0.00     0.010 A 
ATOM     29  C   UNL     1     -48.226  36.574  28.013  1.00  0.00     0.034 A 
ATOM     30  C   UNL     1     -45.872  36.859  28.284  1.00  0.00    -0.028 A 
ATOM     31  N   UNL     1     -48.441  37.906  27.977  1.00  0.00    -0.262 NA
ATOM     32  H   UNL     1     -49.121  35.965  27.909  1.00  0.00     0.084 H 
ATOM     33  C   UNL     1     -46.048  38.245  28.262  1.00  0.00     0.066 A 
ATOM     34  H   UNL     1     -44.893  36.410  28.411  1.00  0.00     0.065 H 
ATOM     35  C   UNL     1     -47.354  38.706  28.107  1.00  0.00     0.051 A 
ATOM     36  H   UNL     1     -47.612  39.759  28.061  1.00  0.00     0.086 H 
BRANCH  33  37
ATOM     37  N   UNL     1     -44.956  39.163  28.389  1.00  0.00    -0.300 N 
ATOM     38  C   UNL     1     -44.075  39.211  29.462  1.00  0.00     0.012 A 
ATOM     39  C   UNL     1     -44.562  40.164  27.493  1.00  0.00     0.150 A 
ATOM     40  C   UNL     1     -43.145  40.203  29.254  1.00  0.00    -0.031 A 
ATOM     41  H   UNL     1     -44.145  38.523  30.292  1.00  0.00     0.082 H 
ATOM     42  C   UNL     1     -43.447  40.815  28.017  1.00  0.00     0.061 A 
ATOM     43  N   UNL     1     -45.152  40.484  26.323  1.00  0.00    -0.218 NA
ATOM     44  H   UNL     1     -42.330  40.453  29.920  1.00  0.00     0.065 H 
ATOM     45  C   UNL     1     -42.896  41.861  27.262  1.00  0.00     0.136 A 
ATOM     46  C   UNL     1     -44.538  41.494  25.689  1.00  0.00     0.120 A 
ATOM     47  N   UNL     1     -43.463  42.192  26.090  1.00  0.00    -0.219 NA
ATOM     48  H   UNL     1     -44.964  41.788  24.735  1.00  0.00     0.106 H 
BRANCH  45  49
ATOM     49  N   UNL     1     -41.794  42.601  27.665  1.00  0.00    -0.383 N 
ATOM     50  H   UNL     1     -40.909  42.289  27.292  1.00  0.00     0.158 HD
ATOM     51  H   UNL     1     -41.827  42.773  28.663  1.00  0.00     0.158 HD
ENDBRANCH  45  49
ENDBRANCH  33  37
ENDBRANCH  25  28
ENDBRANCH  24  25
ENDBRANCH  15  24
ENDBRANCH   4   6
ENDBRANCH   1   4
BRANCH   1  52
ATOM     52  C   UNL     1     -47.111  28.313  23.405  1.00  0.00     0.015 C 
ATOM     53  H   UNL     1     -47.461  28.996  24.191  1.00  0.00     0.045 H 
ATOM     54  H   UNL     1     -47.509  27.323  23.662  1.00  0.00     0.045 H 
BRANCH  52  55
ATOM     55  N   UNL     1     -45.633  28.291  23.413  1.00  0.00    -0.305 NA
BRANCH  55  56
ATOM     56  C   UNL     1     -45.082  29.167  22.376  1.00  0.00    -0.013 C 
ATOM     57  H   UNL     1     -45.328  28.814  21.368  1.00  0.00     0.039 H 
ATOM     58  H   UNL     1     -45.454  30.190  22.482  1.00  0.00     0.039 H 
ATOM     59  H   UNL     1     -43.994  29.245  22.457  1.00  0.00     0.039 H 
ENDBRANCH  55  56
BRANCH  55  60
ATOM     60  C   UNL     1     -45.143  26.910  23.263  1.00  0.00    -0.002 C 
ATOM     61  H   UNL     1     -44.061  26.861  23.440  1.00  0.00     0.043 H 
ATOM     62  H   UNL     1     -45.295  26.575  22.229  1.00  0.00     0.043 H 
BRANCH  60  63
ATOM     63  C   UNL     1     -45.850  25.890  24.174  1.00  0.00    -0.040 C 
ATOM     64  H   UNL     1     -45.236  24.988  24.268  1.00  0.00     0.028 H 
ATOM     65  H   UNL     1     -46.776  25.571  23.678  1.00  0.00     0.028 H 
BRANCH  63  66
ATOM     66  C   UNL     1     -46.192  26.400  25.581  1.00  0.00    -0.052 C 
ATOM     67  H   UNL     1     -46.920  27.216  25.505  1.00  0.00     0.027 H 
ATOM     68  H   UNL     1     -45.284  26.835  26.016  1.00  0.00     0.027 H 
BRANCH  66  69
ATOM     69  C   UNL     1     -46.718  25.305  26.515  1.00  0.00    -0.049 C 
ATOM     70  H   UNL     1     -46.000  25.164  27.333  1.00  0.00     0.027 H 
ATOM     71  H   UNL     1     -46.783  24.349  25.983  1.00  0.00     0.027 H 
BRANCH  69  72
ATOM     72  C   UNL     1     -48.082  25.649  27.126  1.00  0.00    -0.028 C 
ATOM     73  H   UNL     1     -48.596  24.719  27.402  1.00  0.00     0.032 H 
ATOM     74  H   UNL     1     -47.937  26.200  28.063  1.00  0.00     0.032 H 
BRANCH  72  75
ATOM     75  C   UNL     1     -48.988  26.424  26.199  1.00  0.00    -0.048 A 
ATOM     76  C   UNL     1     -49.814  25.755  25.284  1.00  0.00    -0.059 A 
ATOM     77  C   UNL     1     -49.015  27.824  26.236  1.00  0.00    -0.059 A 
ATOM     78  C   UNL     1     -50.643  26.472  24.421  1.00  0.00    -0.062 A 
ATOM     79  H   UNL     1     -49.812  24.668  25.237  1.00  0.00     0.063 H 
ATOM     80  C   UNL     1     -49.846  28.540  25.373  1.00  0.00    -0.062 A 
ATOM     81  H   UNL     1     -48.382  28.367  26.935  1.00  0.00     0.063 H 
ATOM     82  C   UNL     1     -50.660  27.864  24.466  1.00  0.00    -0.062 A 
ATOM     83  H   UNL     1     -51.276  25.944  23.713  1.00  0.00     0.062 H 
ATOM     84  H   UNL     1     -49.858  29.626  25.409  1.00  0.00     0.062 H 
ATOM     85  H   UNL     1     -51.306  28.423  23.794  1.00  0.00     0.062 H 
ENDBRANCH  72  75
ENDBRANCH  69  72
ENDBRANCH  66  69
ENDBRANCH  63  66
ENDBRANCH  60  63
ENDBRANCH  55  60
ENDBRANCH  52  55
ENDBRANCH   1  52
TORSDOF 17
ENDMDL
MODEL 4
REMARK VINA RESULT:      -7.4      2.398     12.743
REMARK SMILES Cc1cc(NCCN(C)CCCCCc2ccccc2)c2ccc(OCc3cncc(-n4ccc5c(N)ncnc54)c3)cc2n1
REMARK SMILES IDX 6 1 5 4 4 6 2 7 3 8 45 9 44 11 21 12 43 13 22 14 24 15 23 17
REMARK SMILES IDX 1 20 25 24 26 25 27 28 28 29 42 30 29 31 31 33 30 35 32 37
REMARK SMILES IDX 33 38 41 39 34 40 35 42 40 43 36 45 39 46 38 47 37 49 7 52
REMARK SMILES IDX 8 55 9 56 10 60 11 63 12 66 13 69 14 72 15 75 16 76 20 77
REMARK SMILES IDX 17 78 19 80 18 82
REMARK H PARENT 6 2 6 3 5 5 3 10 43 16 22 18 23 19 1 21 1 22 1 23 26 26 26 27
REMARK H PARENT 28 32 42 34 30 36 33 41 34 44 39 48 37 50 37 51 7 53 7 54 9 57
REMARK H PARENT 9 58 9 59 10 61 10 62 11 64 11 65 12 67 12 68 13 70 13 71
REMARK H PARENT 14 73 14 74 16 79 20 81 17 83 19 84 18 85
REMARK Flexibility Score: inf
ROOT
ATOM      1  C   UNL     1     -43.944  41.213  25.966  1.00  0.00     0.027 C 
ATOM      2  H   UNL     1     -43.959  40.127  26.102  1.00  0.00     0.050 H 
ATOM      3  H   UNL     1     -43.148  41.412  25.236  1.00  0.00     0.050 H 
ENDROOT
BRANCH   1   4
ATOM      4  N   UNL     1     -45.200  41.679  25.369  1.00  0.00    -0.383 N 
ATOM      5  H   UNL     1     -45.068  42.551  24.865  1.00  0.00     0.160 HD
BRANCH   4   6
ATOM      6  C   UNL     1     -46.421  41.651  26.068  1.00  0.00     0.045 A 
ATOM      7  C   UNL     1     -48.333  42.748  27.044  1.00  0.00     0.040 A 
ATOM      8  C   UNL     1     -47.146  42.816  26.329  1.00  0.00    -0.017 A 
ATOM      9  N   UNL     1     -48.823  41.593  27.536  1.00  0.00    -0.253 NA
ATOM     10  H   UNL     1     -46.811  43.785  25.979  1.00  0.00     0.066 H 
ATOM     11  C   UNL     1     -48.112  40.471  27.359  1.00  0.00     0.076 A 
ATOM     12  C   UNL     1     -46.891  40.436  26.650  1.00  0.00     0.024 A 
ATOM     13  C   UNL     1     -48.619  39.303  27.917  1.00  0.00     0.007 A 
ATOM     14  C   UNL     1     -46.211  39.198  26.567  1.00  0.00    -0.047 A 
ATOM     15  C   UNL     1     -47.955  38.083  27.810  1.00  0.00     0.122 A 
ATOM     16  H   UNL     1     -49.556  39.391  28.458  1.00  0.00     0.069 H 
ATOM     17  C   UNL     1     -46.740  38.040  27.138  1.00  0.00    -0.019 A 
ATOM     18  H   UNL     1     -45.248  39.121  26.071  1.00  0.00     0.063 H 
ATOM     19  H   UNL     1     -46.193  37.103  27.061  1.00  0.00     0.066 H 
BRANCH   7  20
ATOM     20  C   UNL     1     -49.127  43.994  27.305  1.00  0.00    -0.022 C 
ATOM     21  H   UNL     1     -50.196  43.762  27.338  1.00  0.00     0.030 H 
ATOM     22  H   UNL     1     -48.963  44.733  26.514  1.00  0.00     0.030 H 
ATOM     23  H   UNL     1     -48.825  44.441  28.258  1.00  0.00     0.030 H 
ENDBRANCH   7  20
BRANCH  15  24
ATOM     24  O   UNL     1     -48.363  36.884  28.325  1.00  0.00    -0.489 OA
BRANCH  24  25
ATOM     25  C   UNL     1     -49.080  35.982  27.478  1.00  0.00     0.115 C 
ATOM     26  H   UNL     1     -49.298  36.528  26.552  1.00  0.00     0.076 H 
ATOM     27  H   UNL     1     -50.056  35.725  27.907  1.00  0.00     0.076 H 
BRANCH  25  28
ATOM     28  C   UNL     1     -48.272  34.768  27.104  1.00  0.00     0.010 A 
ATOM     29  C   UNL     1     -47.042  34.510  27.692  1.00  0.00     0.034 A 
ATOM     30  C   UNL     1     -48.715  33.882  26.110  1.00  0.00    -0.028 A 
ATOM     31  N   UNL     1     -46.262  33.456  27.373  1.00  0.00    -0.262 NA
ATOM     32  H   UNL     1     -46.635  35.162  28.462  1.00  0.00     0.084 H 
ATOM     33  C   UNL     1     -47.944  32.771  25.753  1.00  0.00     0.066 A 
ATOM     34  H   UNL     1     -49.677  34.080  25.652  1.00  0.00     0.065 H 
ATOM     35  C   UNL     1     -46.732  32.613  26.420  1.00  0.00     0.051 A 
ATOM     36  H   UNL     1     -46.043  31.799  26.218  1.00  0.00     0.086 H 
BRANCH  33  37
ATOM     37  N   UNL     1     -48.362  31.833  24.755  1.00  0.00    -0.300 N 
ATOM     38  C   UNL     1     -49.585  31.174  24.741  1.00  0.00     0.012 A 
ATOM     39  C   UNL     1     -47.653  31.398  23.629  1.00  0.00     0.150 A 
ATOM     40  C   UNL     1     -49.658  30.355  23.638  1.00  0.00    -0.031 A 
ATOM     41  H   UNL     1     -50.338  31.347  25.497  1.00  0.00     0.082 H 
ATOM     42  C   UNL     1     -48.441  30.485  22.932  1.00  0.00     0.061 A 
ATOM     43  N   UNL     1     -46.408  31.767  23.261  1.00  0.00    -0.218 NA
ATOM     44  H   UNL     1     -50.504  29.737  23.367  1.00  0.00     0.065 H 
ATOM     45  C   UNL     1     -47.904  29.928  21.762  1.00  0.00     0.136 A 
ATOM     46  C   UNL     1     -46.002  31.175  22.130  1.00  0.00     0.120 A 
ATOM     47  N   UNL     1     -46.669  30.287  21.374  1.00  0.00    -0.219 NA
ATOM     48  H   UNL     1     -45.010  31.442  21.780  1.00  0.00     0.106 H 
BRANCH  45  49
ATOM     49  N   UNL     1     -48.571  29.001  20.977  1.00  0.00    -0.383 N 
ATOM     50  H   UNL     1     -48.259  28.947  20.017  1.00  0.00     0.158 HD
ATOM     51  H   UNL     1     -49.573  29.068  21.120  1.00  0.00     0.158 HD
ENDBRANCH  45  49
ENDBRANCH  33  37
ENDBRANCH  25  28
ENDBRANCH  24  25
ENDBRANCH  15  24
ENDBRANCH   4   6
ENDBRANCH   1   4
BRANCH   1  52
ATOM     52  C   UNL     1     -43.610  41.968  27.274  1.00  0.00     0.015 C 
ATOM     53  H   UNL     1     -44.568  42.162  27.775  1.00  0.00     0.045 H 
ATOM     54  H   UNL     1     -43.034  41.329  27.955  1.00  0.00     0.045 H 
BRANCH  52  55
ATOM     55  N   UNL     1     -42.912  43.253  27.060  1.00  0.00    -0.305 NA
BRANCH  55  56
ATOM     56  C   UNL     1     -43.847  44.381  27.106  1.00  0.00    -0.013 C 
ATOM     57  H   UNL     1     -43.326  45.343  27.158  1.00  0.00     0.039 H 
ATOM     58  H   UNL     1     -44.500  44.391  26.227  1.00  0.00     0.039 H 
ATOM     59  H   UNL     1     -44.520  44.306  27.965  1.00  0.00     0.039 H 
ENDBRANCH  55  56
BRANCH  55  60
ATOM     60  C   UNL     1     -42.170  43.224  25.787  1.00  0.00    -0.002 C 
ATOM     61  H   UNL     1     -42.245  42.234  25.318  1.00  0.00     0.043 H 
ATOM     62  H   UNL     1     -41.102  43.386  25.979  1.00  0.00     0.043 H 
BRANCH  60  63
ATOM     63  C   UNL     1     -42.614  44.297  24.777  1.00  0.00    -0.040 C 
ATOM     64  H   UNL     1     -41.775  44.966  24.554  1.00  0.00     0.028 H 
ATOM     65  H   UNL     1     -43.376  44.925  25.256  1.00  0.00     0.028 H 
BRANCH  63  66
ATOM     66  C   UNL     1     -43.175  43.756  23.455  1.00  0.00    -0.052 C 
ATOM     67  H   UNL     1     -44.185  43.366  23.622  1.00  0.00     0.027 H 
ATOM     68  H   UNL     1     -42.560  42.901  23.148  1.00  0.00     0.027 H 
BRANCH  66  69
ATOM     69  C   UNL     1     -43.186  44.793  22.327  1.00  0.00    -0.049 C 
ATOM     70  H   UNL     1     -43.629  44.337  21.432  1.00  0.00     0.027 H 
ATOM     71  H   UNL     1     -42.162  45.079  22.062  1.00  0.00     0.027 H 
BRANCH  69  72
ATOM     72  C   UNL     1     -43.996  46.047  22.680  1.00  0.00    -0.028 C 
ATOM     73  H   UNL     1     -43.637  46.448  23.638  1.00  0.00     0.032 H 
ATOM     74  H   UNL     1     -43.803  46.831  21.937  1.00  0.00     0.032 H 
BRANCH  72  75
ATOM     75  C   UNL     1     -45.479  45.800  22.805  1.00  0.00    -0.048 A 
ATOM     76  C   UNL     1     -46.237  45.424  21.687  1.00  0.00    -0.059 A 
ATOM     77  C   UNL     1     -46.124  45.945  24.041  1.00  0.00    -0.059 A 
ATOM     78  C   UNL     1     -47.611  45.205  21.802  1.00  0.00    -0.062 A 
ATOM     79  H   UNL     1     -45.760  45.304  20.717  1.00  0.00     0.063 H 
ATOM     80  C   UNL     1     -47.497  45.724  24.154  1.00  0.00    -0.062 A 
ATOM     81  H   UNL     1     -45.559  46.238  24.923  1.00  0.00     0.063 H 
ATOM     82  C   UNL     1     -48.240  45.354  23.035  1.00  0.00    -0.062 A 
ATOM     83  H   UNL     1     -48.189  44.918  20.928  1.00  0.00     0.062 H 
ATOM     84  H   UNL     1     -47.987  45.842  25.117  1.00  0.00     0.062 H 
ATOM     85  H   UNL     1     -49.310  45.183  23.125  1.00  0.00     0.062 H 
ENDBRANCH  72  75
ENDBRANCH  69  72
ENDBRANCH  66  69
ENDBRANCH  63  66
ENDBRANCH  60  63
ENDBRANCH  55  60
ENDBRANCH  52  55
ENDBRANCH   1  52
TORSDOF 17
ENDMDL
MODEL 5
REMARK VINA RESULT:      -6.9      3.278     13.741
REMARK SMILES Cc1cc(NCCN(C)CCCCCc2ccccc2)c2ccc(OCc3cncc(-n4ccc5c(N)ncnc54)c3)cc2n1
REMARK SMILES IDX 6 1 5 4 4 6 2 7 3 8 45 9 44 11 21 12 43 13 22 14 24 15 23 17
REMARK SMILES IDX 1 20 25 24 26 25 27 28 28 29 42 30 29 31 31 33 30 35 32 37
REMARK SMILES IDX 33 38 41 39 34 40 35 42 40 43 36 45 39 46 38 47 37 49 7 52
REMARK SMILES IDX 8 55 9 56 10 60 11 63 12 66 13 69 14 72 15 75 16 76 20 77
REMARK SMILES IDX 17 78 19 80 18 82
REMARK H PARENT 6 2 6 3 5 5 3 10 43 16 22 18 23 19 1 21 1 22 1 23 26 26 26 27
REMARK H PARENT 28 32 42 34 30 36 33 41 34 44 39 48 37 50 37 51 7 53 7 54 9 57
REMARK H PARENT 9 58 9 59 10 61 10 62 11 64 11 65 12 67 12 68 13 70 13 71
REMARK H PARENT 14 73 14 74 16 79 20 81 17 83 19 84 18 85
REMARK Flexibility Score: inf
ROOT
ATOM      1  C   UNL     1     -46.877  40.141  27.573  1.00  0.00     0.027 C 
ATOM      2  H   UNL     1     -47.945  40.362  27.491  1.00  0.00     0.050 H 
ATOM      3  H   UNL     1     -46.544  40.612  28.507  1.00  0.00     0.050 H 
ENDROOT
BRANCH   1   4
ATOM      4  N   UNL     1     -46.654  38.698  27.717  1.00  0.00    -0.383 N 
ATOM      5  H   UNL     1     -45.824  38.401  27.213  1.00  0.00     0.160 HD
BRANCH   4   6
ATOM      6  C   UNL     1     -47.699  37.762  27.614  1.00  0.00     0.045 A 
ATOM      7  C   UNL     1     -49.986  37.087  27.972  1.00  0.00     0.040 A 
ATOM      8  C   UNL     1     -48.989  38.047  28.069  1.00  0.00    -0.017 A 
ATOM      9  N   UNL     1     -49.765  35.854  27.475  1.00  0.00    -0.253 NA
ATOM     10  H   UNL     1     -49.242  39.011  28.494  1.00  0.00     0.066 H 
ATOM     11  C   UNL     1     -48.522  35.531  27.095  1.00  0.00     0.076 A 
ATOM     12  C   UNL     1     -47.438  36.436  27.158  1.00  0.00     0.024 A 
ATOM     13  C   UNL     1     -48.315  34.237  26.630  1.00  0.00     0.007 A 
ATOM     14  C   UNL     1     -46.162  35.965  26.768  1.00  0.00    -0.047 A 
ATOM     15  C   UNL     1     -47.059  33.790  26.225  1.00  0.00     0.122 A 
ATOM     16  H   UNL     1     -49.181  33.584  26.612  1.00  0.00     0.069 H 
ATOM     17  C   UNL     1     -45.980  34.660  26.307  1.00  0.00    -0.019 A 
ATOM     18  H   UNL     1     -45.285  36.602  26.836  1.00  0.00     0.063 H 
ATOM     19  H   UNL     1     -44.987  34.325  26.017  1.00  0.00     0.066 H 
BRANCH   7  20
ATOM     20  C   UNL     1     -51.378  37.398  28.438  1.00  0.00    -0.022 C 
ATOM     21  H   UNL     1     -52.110  36.856  27.830  1.00  0.00     0.030 H 
ATOM     22  H   UNL     1     -51.588  38.469  28.349  1.00  0.00     0.030 H 
ATOM     23  H   UNL     1     -51.498  37.112  29.487  1.00  0.00     0.030 H 
ENDBRANCH   7  20
BRANCH  15  24
ATOM     24  O   UNL     1     -46.749  32.542  25.760  1.00  0.00    -0.489 OA
BRANCH  24  25
ATOM     25  C   UNL     1     -46.247  32.412  24.428  1.00  0.00     0.115 C 
ATOM     26  H   UNL     1     -45.178  32.181  24.516  1.00  0.00     0.076 H 
ATOM     27  H   UNL     1     -46.300  33.366  23.888  1.00  0.00     0.076 H 
BRANCH  25  28
ATOM     28  C   UNL     1     -46.890  31.281  23.671  1.00  0.00     0.010 A 
ATOM     29  C   UNL     1     -46.548  31.006  22.354  1.00  0.00     0.034 A 
ATOM     30  C   UNL     1     -47.896  30.497  24.257  1.00  0.00    -0.028 A 
ATOM     31  N   UNL     1     -47.115  30.027  21.619  1.00  0.00    -0.262 NA
ATOM     32  H   UNL     1     -45.784  31.582  21.836  1.00  0.00     0.084 H 
ATOM     33  C   UNL     1     -48.505  29.465  23.536  1.00  0.00     0.066 A 
ATOM     34  H   UNL     1     -48.162  30.708  25.287  1.00  0.00     0.065 H 
ATOM     35  C   UNL     1     -48.070  29.280  22.225  1.00  0.00     0.051 A 
ATOM     36  H   UNL     1     -48.478  28.522  21.565  1.00  0.00     0.086 H 
BRANCH  33  37
ATOM     37  N   UNL     1     -49.524  28.631  24.097  1.00  0.00    -0.300 N 
ATOM     38  C   UNL     1     -50.872  28.684  23.765  1.00  0.00     0.012 A 
ATOM     39  C   UNL     1     -49.382  27.626  25.062  1.00  0.00     0.150 A 
ATOM     40  C   UNL     1     -51.564  27.739  24.486  1.00  0.00    -0.031 A 
ATOM     41  H   UNL     1     -51.252  29.368  23.021  1.00  0.00     0.082 H 
ATOM     42  C   UNL     1     -50.634  27.069  25.312  1.00  0.00     0.061 A 
ATOM     43  N   UNL     1     -48.243  27.249  25.680  1.00  0.00    -0.218 NA
ATOM     44  H   UNL     1     -52.627  27.546  24.416  1.00  0.00     0.065 H 
ATOM     45  C   UNL     1     -50.704  26.036  26.258  1.00  0.00     0.136 A 
ATOM     46  C   UNL     1     -48.431  26.254  26.558  1.00  0.00     0.120 A 
ATOM     47  N   UNL     1     -49.581  25.640  26.880  1.00  0.00    -0.219 NA
ATOM     48  H   UNL     1     -47.546  25.902  27.079  1.00  0.00     0.106 H 
BRANCH  45  49
ATOM     49  N   UNL     1     -51.884  25.398  26.612  1.00  0.00    -0.383 N 
ATOM     50  H   UNL     1     -51.771  24.476  27.009  1.00  0.00     0.158 HD
ATOM     51  H   UNL     1     -52.573  25.489  25.874  1.00  0.00     0.158 HD
ENDBRANCH  45  49
ENDBRANCH  33  37
ENDBRANCH  25  28
ENDBRANCH  24  25
ENDBRANCH  15  24
ENDBRANCH   4   6
ENDBRANCH   1   4
BRANCH   1  52
ATOM     52  C   UNL     1     -46.059  40.738  26.404  1.00  0.00     0.015 C 
ATOM     53  H   UNL     1     -45.066  40.270  26.448  1.00  0.00     0.045 H 
ATOM     54  H   UNL     1     -46.491  40.447  25.439  1.00  0.00     0.045 H 
BRANCH  52  55
ATOM     55  N   UNL     1     -45.900  42.206  26.475  1.00  0.00    -0.305 NA
BRANCH  55  56
ATOM     56  C   UNL     1     -47.165  42.893  26.202  1.00  0.00    -0.013 C 
ATOM     57  H   UNL     1     -47.346  43.006  25.127  1.00  0.00     0.039 H 
ATOM     58  H   UNL     1     -48.011  42.354  26.637  1.00  0.00     0.039 H 
ATOM     59  H   UNL     1     -47.187  43.885  26.661  1.00  0.00     0.039 H 
ENDBRANCH  55  56
BRANCH  55  60
ATOM     60  C   UNL     1     -44.840  42.648  25.551  1.00  0.00    -0.002 C 
ATOM     61  H   UNL     1     -44.867  42.063  24.623  1.00  0.00     0.043 H 
ATOM     62  H   UNL     1     -43.857  42.456  25.999  1.00  0.00     0.043 H 
BRANCH  60  63
ATOM     63  C   UNL     1     -44.892  44.147  25.207  1.00  0.00    -0.040 C 
ATOM     64  H   UNL     1     -43.876  44.529  25.058  1.00  0.00     0.028 H 
ATOM     65  H   UNL     1     -45.289  44.686  26.077  1.00  0.00     0.028 H 
BRANCH  63  66
ATOM     66  C   UNL     1     -45.735  44.504  23.975  1.00  0.00    -0.052 C 
ATOM     67  H   UNL     1     -46.710  44.010  24.047  1.00  0.00     0.027 H 
ATOM     68  H   UNL     1     -45.241  44.085  23.090  1.00  0.00     0.027 H 
BRANCH  66  69
ATOM     69  C   UNL     1     -45.917  46.013  23.777  1.00  0.00    -0.049 C 
ATOM     70  H   UNL     1     -45.047  46.532  24.201  1.00  0.00     0.027 H 
ATOM     71  H   UNL     1     -46.796  46.366  24.328  1.00  0.00     0.027 H 
BRANCH  69  72
ATOM     72  C   UNL     1     -46.041  46.408  22.300  1.00  0.00    -0.028 C 
ATOM     73  H   UNL     1     -46.721  45.707  21.798  1.00  0.00     0.032 H 
ATOM     74  H   UNL     1     -46.517  47.394  22.222  1.00  0.00     0.032 H 
BRANCH  72  75
ATOM     75  C   UNL     1     -44.729  46.400  21.554  1.00  0.00    -0.048 A 
ATOM     76  C   UNL     1     -44.353  45.290  20.783  1.00  0.00    -0.059 A 
ATOM     77  C   UNL     1     -43.865  47.500  21.621  1.00  0.00    -0.059 A 
ATOM     78  C   UNL     1     -43.135  45.279  20.102  1.00  0.00    -0.062 A 
ATOM     79  H   UNL     1     -45.007  44.423  20.714  1.00  0.00     0.063 H 
ATOM     80  C   UNL     1     -42.648  47.489  20.938  1.00  0.00    -0.062 A 
ATOM     81  H   UNL     1     -44.131  48.372  22.214  1.00  0.00     0.063 H 
ATOM     82  C   UNL     1     -42.283  46.379  20.179  1.00  0.00    -0.062 A 
ATOM     83  H   UNL     1     -42.852  44.413  19.511  1.00  0.00     0.062 H 
ATOM     84  H   UNL     1     -41.984  48.347  21.000  1.00  0.00     0.062 H 
ATOM     85  H   UNL     1     -41.335  46.371  19.648  1.00  0.00     0.062 H 
ENDBRANCH  72  75
ENDBRANCH  69  72
ENDBRANCH  66  69
ENDBRANCH  63  66
ENDBRANCH  60  63
ENDBRANCH  55  60
ENDBRANCH  52  55
ENDBRANCH   1  52
TORSDOF 17
ENDMDL
MODEL 6
REMARK VINA RESULT:      -6.5      2.996      7.921
REMARK SMILES Cc1cc(NCCN(C)CCCCCc2ccccc2)c2ccc(OCc3cncc(-n4ccc5c(N)ncnc54)c3)cc2n1
REMARK SMILES IDX 6 1 5 4 4 6 2 7 3 8 45 9 44 11 21 12 43 13 22 14 24 15 23 17
REMARK SMILES IDX 1 20 25 24 26 25 27 28 28 29 42 30 29 31 31 33 30 35 32 37
REMARK SMILES IDX 33 38 41 39 34 40 35 42 40 43 36 45 39 46 38 47 37 49 7 52
REMARK SMILES IDX 8 55 9 56 10 60 11 63 12 66 13 69 14 72 15 75 16 76 20 77
REMARK SMILES IDX 17 78 19 80 18 82
REMARK H PARENT 6 2 6 3 5 5 3 10 43 16 22 18 23 19 1 21 1 22 1 23 26 26 26 27
REMARK H PARENT 28 32 42 34 30 36 33 41 34 44 39 48 37 50 37 51 7 53 7 54 9 57
REMARK H PARENT 9 58 9 59 10 61 10 62 11 64 11 65 12 67 12 68 13 70 13 71
REMARK H PARENT 14 73 14 74 16 79 20 81 17 83 19 84 18 85
REMARK Flexibility Score: inf
ROOT
ATOM      1  C   UNL     1     -45.315  37.953  28.472  1.00  0.00     0.027 C 
ATOM      2  H   UNL     1     -44.483  37.258  28.328  1.00  0.00     0.050 H 
ATOM      3  H   UNL     1     -45.223  38.322  29.501  1.00  0.00     0.050 H 
ENDROOT
BRANCH   1   4
ATOM      4  N   UNL     1     -45.182  39.115  27.586  1.00  0.00    -0.383 N 
ATOM      5  H   UNL     1     -45.311  38.853  26.613  1.00  0.00     0.160 HD
BRANCH   4   6
ATOM      6  C   UNL     1     -44.163  40.070  27.747  1.00  0.00     0.045 A 
ATOM      7  C   UNL     1     -42.358  41.057  29.006  1.00  0.00     0.040 A 
ATOM      8  C   UNL     1     -43.336  40.081  28.873  1.00  0.00    -0.017 A 
ATOM      9  N   UNL     1     -42.176  42.034  28.097  1.00  0.00    -0.253 NA
ATOM     10  H   UNL     1     -43.430  39.337  29.655  1.00  0.00     0.066 H 
ATOM     11  C   UNL     1     -43.000  42.088  27.042  1.00  0.00     0.076 A 
ATOM     12  C   UNL     1     -44.028  41.145  26.819  1.00  0.00     0.024 A 
ATOM     13  C   UNL     1     -42.817  43.135  26.145  1.00  0.00     0.007 A 
ATOM     14  C   UNL     1     -44.861  41.332  25.690  1.00  0.00    -0.047 A 
ATOM     15  C   UNL     1     -43.627  43.297  25.023  1.00  0.00     0.122 A 
ATOM     16  H   UNL     1     -42.018  43.834  26.372  1.00  0.00     0.069 H 
ATOM     17  C   UNL     1     -44.659  42.393  24.807  1.00  0.00    -0.019 A 
ATOM     18  H   UNL     1     -45.694  40.663  25.493  1.00  0.00     0.063 H 
ATOM     19  H   UNL     1     -45.317  42.513  23.949  1.00  0.00     0.066 H 
BRANCH   7  20
ATOM     20  C   UNL     1     -41.453  41.057  30.202  1.00  0.00    -0.022 C 
ATOM     21  H   UNL     1     -41.360  42.070  30.606  1.00  0.00     0.030 H 
ATOM     22  H   UNL     1     -40.452  40.704  29.933  1.00  0.00     0.030 H 
ATOM     23  H   UNL     1     -41.852  40.394  30.977  1.00  0.00     0.030 H 
ENDBRANCH   7  20
BRANCH  15  24
ATOM     24  O   UNL     1     -43.536  44.290  24.088  1.00  0.00    -0.489 OA
BRANCH  24  25
ATOM     25  C   UNL     1     -43.710  45.646  24.507  1.00  0.00     0.115 C 
ATOM     26  H   UNL     1     -43.955  46.223  23.607  1.00  0.00     0.076 H 
ATOM     27  H   UNL     1     -42.771  46.069  24.884  1.00  0.00     0.076 H 
BRANCH  25  28
ATOM     28  C   UNL     1     -44.852  45.813  25.474  1.00  0.00     0.010 A 
ATOM     29  C   UNL     1     -44.672  46.430  26.705  1.00  0.00     0.034 A 
ATOM     30  C   UNL     1     -46.127  45.306  25.184  1.00  0.00    -0.028 A 
ATOM     31  N   UNL     1     -45.650  46.578  27.622  1.00  0.00    -0.262 NA
ATOM     32  H   UNL     1     -43.706  46.837  26.998  1.00  0.00     0.084 H 
ATOM     33  C   UNL     1     -47.174  45.444  26.101  1.00  0.00     0.066 A 
ATOM     34  H   UNL     1     -46.271  44.827  24.222  1.00  0.00     0.065 H 
ATOM     35  C   UNL     1     -46.873  46.090  27.298  1.00  0.00     0.051 A 
ATOM     36  H   UNL     1     -47.598  46.243  28.090  1.00  0.00     0.086 H 
BRANCH  33  37
ATOM     37  N   UNL     1     -48.495  44.955  25.841  1.00  0.00    -0.300 N 
ATOM     38  C   UNL     1     -49.471  45.634  25.122  1.00  0.00     0.012 A 
ATOM     39  C   UNL     1     -49.058  43.738  26.243  1.00  0.00     0.150 A 
ATOM     40  C   UNL     1     -50.614  44.872  25.059  1.00  0.00    -0.031 A 
ATOM     41  H   UNL     1     -49.286  46.601  24.678  1.00  0.00     0.082 H 
ATOM     42  C   UNL     1     -50.366  43.675  25.768  1.00  0.00     0.061 A 
ATOM     43  N   UNL     1     -48.468  42.775  26.982  1.00  0.00    -0.218 NA
ATOM     44  H   UNL     1     -51.527  45.146  24.547  1.00  0.00     0.065 H 
ATOM     45  C   UNL     1     -51.107  42.523  26.069  1.00  0.00     0.136 A 
ATOM     46  C   UNL     1     -49.269  41.723  27.202  1.00  0.00     0.120 A 
ATOM     47  N   UNL     1     -50.537  41.549  26.797  1.00  0.00    -0.219 NA
ATOM     48  H   UNL     1     -48.843  40.911  27.784  1.00  0.00     0.106 H 
BRANCH  45  49
ATOM     49  N   UNL     1     -52.421  42.330  25.669  1.00  0.00    -0.383 N 
ATOM     50  H   UNL     1     -52.963  41.712  26.257  1.00  0.00     0.158 HD
ATOM     51  H   UNL     1     -52.469  42.156  24.671  1.00  0.00     0.158 HD
ENDBRANCH  45  49
ENDBRANCH  33  37
ENDBRANCH  25  28
ENDBRANCH  24  25
ENDBRANCH  15  24
ENDBRANCH   4   6
ENDBRANCH   1   4
BRANCH   1  52
ATOM     52  C   UNL     1     -46.692  37.265  28.320  1.00  0.00     0.015 C 
ATOM     53  H   UNL     1     -47.182  37.328  29.301  1.00  0.00     0.045 H 
ATOM     54  H   UNL     1     -47.331  37.823  27.624  1.00  0.00     0.045 H 
BRANCH  52  55
ATOM     55  N   UNL     1     -46.609  35.845  27.918  1.00  0.00    -0.305 NA
BRANCH  55  56
ATOM     56  C   UNL     1     -45.216  35.401  27.812  1.00  0.00    -0.013 C 
ATOM     57  H   UNL     1     -44.583  36.153  27.328  1.00  0.00     0.039 H 
ATOM     58  H   UNL     1     -44.795  35.179  28.796  1.00  0.00     0.039 H 
ATOM     59  H   UNL     1     -45.137  34.469  27.246  1.00  0.00     0.039 H 
ENDBRANCH  55  56
BRANCH  55  60
ATOM     60  C   UNL     1     -47.337  35.631  26.654  1.00  0.00    -0.002 C 
ATOM     61  H   UNL     1     -47.352  36.551  26.056  1.00  0.00     0.043 H 
ATOM     62  H   UNL     1     -48.387  35.394  26.869  1.00  0.00     0.043 H 
BRANCH  60  63
ATOM     63  C   UNL     1     -46.782  34.479  25.797  1.00  0.00    -0.040 C 
ATOM     64  H   UNL     1     -45.723  34.654  25.580  1.00  0.00     0.028 H 
ATOM     65  H   UNL     1     -47.293  34.498  24.825  1.00  0.00     0.028 H 
BRANCH  63  66
ATOM     66  C   UNL     1     -46.933  33.080  26.410  1.00  0.00    -0.052 C 
ATOM     67  H   UNL     1     -47.209  33.173  27.466  1.00  0.00     0.027 H 
ATOM     68  H   UNL     1     -45.951  32.592  26.390  1.00  0.00     0.027 H 
BRANCH  66  69
ATOM     69  C   UNL     1     -47.944  32.197  25.672  1.00  0.00    -0.049 C 
ATOM     70  H   UNL     1     -48.887  32.749  25.569  1.00  0.00     0.027 H 
ATOM     71  H   UNL     1     -48.166  31.299  26.259  1.00  0.00     0.027 H 
BRANCH  69  72
ATOM     72  C   UNL     1     -47.468  31.791  24.271  1.00  0.00    -0.028 C 
ATOM     73  H   UNL     1     -47.676  32.611  23.570  1.00  0.00     0.032 H 
ATOM     74  H   UNL     1     -46.378  31.669  24.273  1.00  0.00     0.032 H 
BRANCH  72  75
ATOM     75  C   UNL     1     -48.132  30.544  23.738  1.00  0.00    -0.048 A 
ATOM     76  C   UNL     1     -47.434  29.328  23.692  1.00  0.00    -0.059 A 
ATOM     77  C   UNL     1     -49.455  30.583  23.279  1.00  0.00    -0.059 A 
ATOM     78  C   UNL     1     -48.046  28.178  23.190  1.00  0.00    -0.062 A 
ATOM     79  H   UNL     1     -46.407  29.272  24.044  1.00  0.00     0.063 H 
ATOM     80  C   UNL     1     -50.065  29.431  22.778  1.00  0.00    -0.062 A 
ATOM     81  H   UNL     1     -50.017  31.514  23.300  1.00  0.00     0.063 H 
ATOM     82  C   UNL     1     -49.361  28.230  22.734  1.00  0.00    -0.062 A 
ATOM     83  H   UNL     1     -47.495  27.242  23.156  1.00  0.00     0.062 H 
ATOM     84  H   UNL     1     -51.091  29.474  22.422  1.00  0.00     0.062 H 
ATOM     85  H   UNL     1     -49.837  27.334  22.344  1.00  0.00     0.062 H 
ENDBRANCH  72  75
ENDBRANCH  69  72
ENDBRANCH  66  69
ENDBRANCH  63  66
ENDBRANCH  60  63
ENDBRANCH  55  60
ENDBRANCH  52  55
ENDBRANCH   1  52
TORSDOF 17
ENDMDL
MODEL 7
REMARK VINA RESULT:      -6.5      2.570     12.830
REMARK SMILES Cc1cc(NCCN(C)CCCCCc2ccccc2)c2ccc(OCc3cncc(-n4ccc5c(N)ncnc54)c3)cc2n1
REMARK SMILES IDX 6 1 5 4 4 6 2 7 3 8 45 9 44 11 21 12 43 13 22 14 24 15 23 17
REMARK SMILES IDX 1 20 25 24 26 25 27 28 28 29 42 30 29 31 31 33 30 35 32 37
REMARK SMILES IDX 33 38 41 39 34 40 35 42 40 43 36 45 39 46 38 47 37 49 7 52
REMARK SMILES IDX 8 55 9 56 10 60 11 63 12 66 13 69 14 72 15 75 16 76 20 77
REMARK SMILES IDX 17 78 19 80 18 82
REMARK H PARENT 6 2 6 3 5 5 3 10 43 16 22 18 23 19 1 21 1 22 1 23 26 26 26 27
REMARK H PARENT 28 32 42 34 30 36 33 41 34 44 39 48 37 50 37 51 7 53 7 54 9 57
REMARK H PARENT 9 58 9 59 10 61 10 62 11 64 11 65 12 67 12 68 13 70 13 71
REMARK H PARENT 14 73 14 74 16 79 20 81 17 83 19 84 18 85
REMARK Flexibility Score: inf
ROOT
ATOM      1  C   UNL     1     -44.720  39.114  27.704  1.00  0.00     0.027 C 
ATOM      2  H   UNL     1     -43.832  38.851  28.285  1.00  0.00     0.050 H 
ATOM      3  H   UNL     1     -45.057  38.182  27.231  1.00  0.00     0.050 H 
ENDROOT
BRANCH   1   4
ATOM      4  N   UNL     1     -45.804  39.564  28.584  1.00  0.00    -0.383 N 
ATOM      5  H   UNL     1     -45.534  39.504  29.562  1.00  0.00     0.160 HD
BRANCH   4   6
ATOM      6  C   UNL     1     -47.144  39.187  28.381  1.00  0.00     0.045 A 
ATOM      7  C   UNL     1     -49.512  39.628  28.487  1.00  0.00     0.040 A 
ATOM      8  C   UNL     1     -48.203  40.048  28.679  1.00  0.00    -0.017 A 
ATOM      9  N   UNL     1     -49.824  38.395  28.043  1.00  0.00    -0.253 NA
ATOM     10  H   UNL     1     -48.034  41.050  29.053  1.00  0.00     0.066 H 
ATOM     11  C   UNL     1     -48.830  37.526  27.815  1.00  0.00     0.076 A 
ATOM     12  C   UNL     1     -47.466  37.856  27.984  1.00  0.00     0.024 A 
ATOM     13  C   UNL     1     -49.186  36.247  27.403  1.00  0.00     0.007 A 
ATOM     14  C   UNL     1     -46.509  36.839  27.754  1.00  0.00    -0.047 A 
ATOM     15  C   UNL     1     -48.234  35.260  27.154  1.00  0.00     0.122 A 
ATOM     16  H   UNL     1     -50.248  36.049  27.298  1.00  0.00     0.069 H 
ATOM     17  C   UNL     1     -46.892  35.562  27.343  1.00  0.00    -0.019 A 
ATOM     18  H   UNL     1     -45.450  37.023  27.909  1.00  0.00     0.063 H 
ATOM     19  H   UNL     1     -46.134  34.800  27.176  1.00  0.00     0.066 H 
BRANCH   7  20
ATOM     20  C   UNL     1     -50.651  40.559  28.783  1.00  0.00    -0.022 C 
ATOM     21  H   UNL     1     -50.656  40.825  29.844  1.00  0.00     0.030 H 
ATOM     22  H   UNL     1     -51.611  40.087  28.545  1.00  0.00     0.030 H 
ATOM     23  H   UNL     1     -50.561  41.470  28.182  1.00  0.00     0.030 H 
ENDBRANCH   7  20
BRANCH  15  24
ATOM     24  O   UNL     1     -48.478  33.976  26.753  1.00  0.00    -0.489 OA
BRANCH  24  25
ATOM     25  C   UNL     1     -49.821  33.597  26.441  1.00  0.00     0.115 C 
ATOM     26  H   UNL     1     -50.323  34.500  26.071  1.00  0.00     0.076 H 
ATOM     27  H   UNL     1     -50.370  33.303  27.345  1.00  0.00     0.076 H 
BRANCH  25  28
ATOM     28  C   UNL     1     -49.896  32.561  25.352  1.00  0.00     0.010 A 
ATOM     29  C   UNL     1     -50.868  32.621  24.364  1.00  0.00     0.034 A 
ATOM     30  C   UNL     1     -49.015  31.469  25.330  1.00  0.00    -0.028 A 
ATOM     31  N   UNL     1     -51.002  31.703  23.384  1.00  0.00    -0.262 NA
ATOM     32  H   UNL     1     -51.589  33.435  24.328  1.00  0.00     0.084 H 
ATOM     33  C   UNL     1     -49.111  30.498  24.328  1.00  0.00     0.066 A 
ATOM     34  H   UNL     1     -48.253  31.422  26.099  1.00  0.00     0.065 H 
ATOM     35  C   UNL     1     -50.122  30.672  23.386  1.00  0.00     0.051 A 
ATOM     36  H   UNL     1     -50.302  29.978  22.572  1.00  0.00     0.086 H 
BRANCH  33  37
ATOM     37  N   UNL     1     -48.225  29.375  24.257  1.00  0.00    -0.300 N 
ATOM     38  C   UNL     1     -47.101  29.295  23.444  1.00  0.00     0.012 A 
ATOM     39  C   UNL     1     -48.303  28.169  24.963  1.00  0.00     0.150 A 
ATOM     40  C   UNL     1     -46.478  28.083  23.633  1.00  0.00    -0.031 A 
ATOM     41  H   UNL     1     -46.798  30.111  22.804  1.00  0.00     0.082 H 
ATOM     42  C   UNL     1     -47.232  27.363  24.586  1.00  0.00     0.061 A 
ATOM     43  N   UNL     1     -49.252  27.809  25.852  1.00  0.00    -0.218 NA
ATOM     44  H   UNL     1     -45.570  27.758  23.142  1.00  0.00     0.065 H 
ATOM     45  C   UNL     1     -47.131  26.099  25.187  1.00  0.00     0.136 A 
ATOM     46  C   UNL     1     -49.051  26.586  26.362  1.00  0.00     0.120 A 
ATOM     47  N   UNL     1     -48.062  25.723  26.080  1.00  0.00    -0.219 NA
ATOM     48  H   UNL     1     -49.780  26.246  27.092  1.00  0.00     0.106 H 
BRANCH  45  49
ATOM     49  N   UNL     1     -46.124  25.190  24.899  1.00  0.00    -0.383 N 
ATOM     50  H   UNL     1     -45.519  24.960  25.675  1.00  0.00     0.158 HD
ATOM     51  H   UNL     1     -45.665  25.431  24.027  1.00  0.00     0.158 HD
ENDBRANCH  45  49
ENDBRANCH  33  37
ENDBRANCH  25  28
ENDBRANCH  24  25
ENDBRANCH  15  24
ENDBRANCH   4   6
ENDBRANCH   1   4
BRANCH   1  52
ATOM     52  C   UNL     1     -44.414  40.144  26.591  1.00  0.00     0.015 C 
ATOM     53  H   UNL     1     -43.326  40.131  26.445  1.00  0.00     0.045 H 
ATOM     54  H   UNL     1     -44.853  39.827  25.637  1.00  0.00     0.045 H 
BRANCH  52  55
ATOM     55  N   UNL     1     -44.837  41.522  26.920  1.00  0.00    -0.305 NA
BRANCH  55  56
ATOM     56  C   UNL     1     -46.007  41.922  26.133  1.00  0.00    -0.013 C 
ATOM     57  H   UNL     1     -46.705  41.090  25.986  1.00  0.00     0.039 H 
ATOM     58  H   UNL     1     -46.547  42.742  26.616  1.00  0.00     0.039 H 
ATOM     59  H   UNL     1     -45.715  42.305  25.152  1.00  0.00     0.039 H 
ENDBRANCH  55  56
BRANCH  55  60
ATOM     60  C   UNL     1     -43.715  42.458  26.725  1.00  0.00    -0.002 C 
ATOM     61  H   UNL     1     -43.551  42.648  25.656  1.00  0.00     0.043 H 
ATOM     62  H   UNL     1     -42.788  42.004  27.096  1.00  0.00     0.043 H 
BRANCH  60  63
ATOM     63  C   UNL     1     -43.883  43.800  27.458  1.00  0.00    -0.040 C 
ATOM     64  H   UNL     1     -42.989  44.012  28.054  1.00  0.00     0.028 H 
ATOM     65  H   UNL     1     -44.705  43.698  28.178  1.00  0.00     0.028 H 
BRANCH  63  66
ATOM     66  C   UNL     1     -44.165  45.007  26.551  1.00  0.00    -0.052 C 
ATOM     67  H   UNL     1     -44.203  44.676  25.507  1.00  0.00     0.027 H 
ATOM     68  H   UNL     1     -43.315  45.696  26.626  1.00  0.00     0.027 H 
BRANCH  66  69
ATOM     69  C   UNL     1     -45.449  45.758  26.918  1.00  0.00    -0.049 C 
ATOM     70  H   UNL     1     -45.198  46.804  27.133  1.00  0.00     0.027 H 
ATOM     71  H   UNL     1     -45.886  45.343  27.833  1.00  0.00     0.027 H 
BRANCH  69  72
ATOM     72  C   UNL     1     -46.493  45.734  25.793  1.00  0.00    -0.028 C 
ATOM     73  H   UNL     1     -46.752  46.767  25.523  1.00  0.00     0.032 H 
ATOM     74  H   UNL     1     -46.052  45.291  24.892  1.00  0.00     0.032 H 
BRANCH  72  75
ATOM     75  C   UNL     1     -47.768  45.015  26.160  1.00  0.00    -0.048 A 
ATOM     76  C   UNL     1     -48.588  44.463  25.164  1.00  0.00    -0.059 A 
ATOM     77  C   UNL     1     -48.155  44.889  27.500  1.00  0.00    -0.059 A 
ATOM     78  C   UNL     1     -49.772  43.807  25.504  1.00  0.00    -0.062 A 
ATOM     79  H   UNL     1     -48.309  44.546  24.116  1.00  0.00     0.063 H 
ATOM     80  C   UNL     1     -49.339  44.231  27.838  1.00  0.00    -0.062 A 
ATOM     81  H   UNL     1     -47.539  45.311  28.291  1.00  0.00     0.063 H 
ATOM     82  C   UNL     1     -50.147  43.690  26.840  1.00  0.00    -0.062 A 
ATOM     83  H   UNL     1     -50.402  43.386  24.725  1.00  0.00     0.062 H 
ATOM     84  H   UNL     1     -49.630  44.142  28.881  1.00  0.00     0.062 H 
ATOM     85  H   UNL     1     -51.069  43.179  27.104  1.00  0.00     0.062 H 
ENDBRANCH  72  75
ENDBRANCH  69  72
ENDBRANCH  66  69
ENDBRANCH  63  66
ENDBRANCH  60  63
ENDBRANCH  55  60
ENDBRANCH  52  55
ENDBRANCH   1  52
TORSDOF 17
ENDMDL
