MODEL 1
REMARK VINA RESULT:      -9.4      0.000      0.000
REMARK SMILES CCc1cc(NCCOC)c2ncc(OCc3cncc(-n4cc([C@H]5CCCO5)c5c(N)ncnc54)c3)cc2n1
REMARK SMILES IDX 3 1 4 2 5 3 11 4 12 5 13 6 14 7 38 8 39 9 40 10 2 14 1 17
REMARK SMILES IDX 6 21 7 23 8 26 9 29 10 30 15 34 16 35 17 38 18 39 37 40
REMARK SMILES IDX 19 41 21 43 20 45 22 47 23 48 36 49 24 50 30 52 35 53 31 54
REMARK SMILES IDX 34 55 33 56 25 58 26 59 29 60 27 62 28 65 32 70
REMARK H PARENT 4 11 13 12 38 13 2 15 2 16 1 18 1 19 1 20 6 22 7 24 7 25 8 27
REMARK H PARENT 8 28 10 31 10 32 10 33 16 36 16 37 18 42 37 44 20 46 23 51
REMARK H PARENT 34 57 25 61 26 63 26 64 27 66 27 67 28 68 28 69 32 71 32 72
REMARK Flexibility Score: inf
ROOT
ATOM      1  C   UNL     1     -46.395  31.450  21.953  1.00  0.00     0.043 A 
ATOM      2  C   UNL     1     -47.380  30.478  22.042  1.00  0.00    -0.015 A 
ATOM      3  C   UNL     1     -48.039  30.285  23.259  1.00  0.00     0.064 A 
ATOM      4  C   UNL     1     -47.730  31.107  24.355  1.00  0.00     0.112 A 
ATOM      5  N   UNL     1     -48.376  30.950  25.537  1.00  0.00    -0.249 NA
ATOM      6  C   UNL     1     -48.021  31.768  26.552  1.00  0.00     0.070 A 
ATOM      7  C   UNL     1     -47.039  32.743  26.464  1.00  0.00     0.140 A 
ATOM      8  C   UNL     1     -46.394  32.881  25.239  1.00  0.00     0.010 A 
ATOM      9  C   UNL     1     -46.718  32.069  24.160  1.00  0.00     0.095 A 
ATOM     10  N   UNL     1     -46.058  32.239  22.998  1.00  0.00    -0.251 NA
ATOM     11  H   UNL     1     -47.649  29.896  21.168  1.00  0.00     0.066 H 
ATOM     12  H   UNL     1     -48.568  31.614  27.478  1.00  0.00     0.088 H 
ATOM     13  H   UNL     1     -45.624  33.626  25.077  1.00  0.00     0.069 H 
ENDROOT
BRANCH   1  14
ATOM     14  C   UNL     1     -45.679  31.700  20.651  1.00  0.00    -0.013 C 
ATOM     15  H   UNL     1     -44.916  30.929  20.491  1.00  0.00     0.033 H 
ATOM     16  H   UNL     1     -45.148  32.657  20.712  1.00  0.00     0.033 H 
BRANCH  14  17
ATOM     17  C   UNL     1     -46.646  31.732  19.478  1.00  0.00    -0.060 C 
ATOM     18  H   UNL     1     -46.808  30.719  19.094  1.00  0.00     0.023 H 
ATOM     19  H   UNL     1     -46.257  32.348  18.661  1.00  0.00     0.023 H 
ATOM     20  H   UNL     1     -47.617  32.142  19.775  1.00  0.00     0.023 H 
ENDBRANCH  14  17
ENDBRANCH   1  14
BRANCH   3  21
ATOM     21  N   UNL     1     -49.094  29.334  23.380  1.00  0.00    -0.381 N 
ATOM     22  H   UNL     1     -49.529  29.497  24.301  1.00  0.00     0.160 HD
BRANCH  21  23
ATOM     23  C   UNL     1     -48.694  27.926  23.264  1.00  0.00     0.038 C 
ATOM     24  H   UNL     1     -47.601  27.843  23.323  1.00  0.00     0.051 H 
ATOM     25  H   UNL     1     -49.035  27.513  22.310  1.00  0.00     0.051 H 
BRANCH  23  26
ATOM     26  C   UNL     1     -49.327  27.116  24.404  1.00  0.00     0.063 C 
ATOM     27  H   UNL     1     -50.315  26.746  24.104  1.00  0.00     0.059 H 
ATOM     28  H   UNL     1     -48.682  26.263  24.646  1.00  0.00     0.059 H 
BRANCH  26  29
ATOM     29  O   UNL     1     -49.453  27.946  25.563  1.00  0.00    -0.383 OA
BRANCH  29  30
ATOM     30  C   UNL     1     -48.642  27.476  26.633  1.00  0.00     0.036 C 
ATOM     31  H   UNL     1     -47.808  26.882  26.248  1.00  0.00     0.053 H 
ATOM     32  H   UNL     1     -48.238  28.342  27.164  1.00  0.00     0.053 H 
ATOM     33  H   UNL     1     -49.238  26.883  27.332  1.00  0.00     0.053 H 
ENDBRANCH  29  30
ENDBRANCH  26  29
ENDBRANCH  23  26
ENDBRANCH  21  23
ENDBRANCH   3  21
BRANCH   7  34
ATOM     34  O   UNL     1     -46.819  33.470  27.596  1.00  0.00    -0.487 OA
BRANCH  34  35
ATOM     35  C   UNL     1     -45.789  34.462  27.589  1.00  0.00     0.115 C 
ATOM     36  H   UNL     1     -45.209  34.316  28.508  1.00  0.00     0.076 H 
ATOM     37  H   UNL     1     -45.088  34.293  26.762  1.00  0.00     0.076 H 
BRANCH  35  38
ATOM     38  C   UNL     1     -46.325  35.870  27.614  1.00  0.00     0.010 A 
ATOM     39  C   UNL     1     -47.693  36.100  27.651  1.00  0.00     0.034 A 
ATOM     40  C   UNL     1     -45.480  36.988  27.547  1.00  0.00    -0.028 A 
ATOM     41  N   UNL     1     -48.248  37.329  27.653  1.00  0.00    -0.262 NA
ATOM     42  H   UNL     1     -48.408  35.283  27.685  1.00  0.00     0.084 H 
ATOM     43  C   UNL     1     -46.012  38.282  27.550  1.00  0.00     0.066 A 
ATOM     44  H   UNL     1     -44.410  36.811  27.521  1.00  0.00     0.065 H 
ATOM     45  C   UNL     1     -47.400  38.386  27.607  1.00  0.00     0.051 A 
ATOM     46  H   UNL     1     -47.924  39.335  27.597  1.00  0.00     0.086 H 
BRANCH  43  47
ATOM     47  N   UNL     1     -45.188  39.452  27.501  1.00  0.00    -0.299 N 
ATOM     48  C   UNL     1     -45.249  40.428  26.516  1.00  0.00     0.018 A 
ATOM     49  C   UNL     1     -44.188  39.835  28.395  1.00  0.00     0.150 A 
ATOM     50  C   UNL     1     -44.342  41.441  26.779  1.00  0.00     0.012 A 
ATOM     51  H   UNL     1     -45.957  40.357  25.703  1.00  0.00     0.083 H 
ATOM     52  C   UNL     1     -43.656  41.052  27.973  1.00  0.00     0.067 A 
ATOM     53  N   UNL     1     -43.767  39.146  29.475  1.00  0.00    -0.218 NA
ATOM     54  C   UNL     1     -42.621  41.598  28.753  1.00  0.00     0.136 A 
ATOM     55  C   UNL     1     -42.781  39.766  30.137  1.00  0.00     0.120 A 
ATOM     56  N   UNL     1     -42.199  40.938  29.844  1.00  0.00    -0.219 NA
ATOM     57  H   UNL     1     -42.406  39.258  31.020  1.00  0.00     0.106 H 
BRANCH  50  58
ATOM     58  C   UNL     1     -44.083  42.679  25.972  1.00  0.00     0.085 C 
ATOM     59  C   UNL     1     -42.710  42.761  25.316  1.00  0.00    -0.020 C 
ATOM     60  O   UNL     1     -45.038  42.822  24.892  1.00  0.00    -0.373 OA
ATOM     61  H   UNL     1     -44.223  43.552  26.625  1.00  0.00     0.066 H 
ATOM     62  C   UNL     1     -42.968  43.693  24.159  1.00  0.00    -0.027 C 
ATOM     63  H   UNL     1     -41.933  43.121  25.998  1.00  0.00     0.030 H 
ATOM     64  H   UNL     1     -42.391  41.787  24.924  1.00  0.00     0.030 H 
ATOM     65  C   UNL     1     -44.339  43.244  23.713  1.00  0.00     0.048 C 
ATOM     66  H   UNL     1     -42.218  43.630  23.367  1.00  0.00     0.029 H 
ATOM     67  H   UNL     1     -43.008  44.728  24.518  1.00  0.00     0.029 H 
ATOM     68  H   UNL     1     -44.902  44.039  23.216  1.00  0.00     0.057 H 
ATOM     69  H   UNL     1     -44.277  42.384  23.036  1.00  0.00     0.057 H 
ENDBRANCH  50  58
BRANCH  54  70
ATOM     70  N   UNL     1     -42.003  42.811  28.472  1.00  0.00    -0.383 N 
ATOM     71  H   UNL     1     -41.126  42.688  27.966  1.00  0.00     0.158 HD
ATOM     72  H   UNL     1     -42.665  43.448  28.046  1.00  0.00     0.158 HD
ENDBRANCH  54  70
ENDBRANCH  43  47
ENDBRANCH  35  38
ENDBRANCH  34  35
ENDBRANCH   7  34
TORSDOF 13
ENDMDL
MODEL 2
REMARK VINA RESULT:      -8.7      1.748     12.228
REMARK SMILES CCc1cc(NCCOC)c2ncc(OCc3cncc(-n4cc([C@H]5CCCO5)c5c(N)ncnc54)c3)cc2n1
REMARK SMILES IDX 3 1 4 2 5 3 11 4 12 5 13 6 14 7 38 8 39 9 40 10 2 14 1 17
REMARK SMILES IDX 6 21 7 23 8 26 9 29 10 30 15 34 16 35 17 38 18 39 37 40
REMARK SMILES IDX 19 41 21 43 20 45 22 47 23 48 36 49 24 50 30 52 35 53 31 54
REMARK SMILES IDX 34 55 33 56 25 58 26 59 29 60 27 62 28 65 32 70
REMARK H PARENT 4 11 13 12 38 13 2 15 2 16 1 18 1 19 1 20 6 22 7 24 7 25 8 27
REMARK H PARENT 8 28 10 31 10 32 10 33 16 36 16 37 18 42 37 44 20 46 23 51
REMARK H PARENT 34 57 25 61 26 63 26 64 27 66 27 67 28 68 28 69 32 71 32 72
REMARK Flexibility Score: inf
ROOT
ATOM      1  C   UNL     1     -42.900  41.431  28.311  1.00  0.00     0.043 A 
ATOM      2  C   UNL     1     -43.386  42.253  27.304  1.00  0.00    -0.015 A 
ATOM      3  C   UNL     1     -44.467  41.819  26.533  1.00  0.00     0.064 A 
ATOM      4  C   UNL     1     -45.074  40.585  26.818  1.00  0.00     0.112 A 
ATOM      5  N   UNL     1     -46.139  40.158  26.095  1.00  0.00    -0.249 NA
ATOM      6  C   UNL     1     -46.666  38.957  26.417  1.00  0.00     0.070 A 
ATOM      7  C   UNL     1     -46.185  38.136  27.425  1.00  0.00     0.140 A 
ATOM      8  C   UNL     1     -45.092  38.600  28.149  1.00  0.00     0.010 A 
ATOM      9  C   UNL     1     -44.509  39.828  27.864  1.00  0.00     0.095 A 
ATOM     10  N   UNL     1     -43.448  40.228  28.591  1.00  0.00    -0.251 NA
ATOM     11  H   UNL     1     -42.945  43.230  27.140  1.00  0.00     0.066 H 
ATOM     12  H   UNL     1     -47.523  38.657  25.818  1.00  0.00     0.088 H 
ATOM     13  H   UNL     1     -44.660  38.030  28.963  1.00  0.00     0.069 H 
ENDROOT
BRANCH   1  14
ATOM     14  C   UNL     1     -41.750  41.876  29.177  1.00  0.00    -0.013 C 
ATOM     15  H   UNL     1     -41.974  42.853  29.622  1.00  0.00     0.033 H 
ATOM     16  H   UNL     1     -40.862  42.014  28.550  1.00  0.00     0.033 H 
BRANCH  14  17
ATOM     17  C   UNL     1     -41.447  40.861  30.268  1.00  0.00    -0.060 C 
ATOM     18  H   UNL     1     -40.473  40.395  30.091  1.00  0.00     0.023 H 
ATOM     19  H   UNL     1     -42.204  40.070  30.294  1.00  0.00     0.023 H 
ATOM     20  H   UNL     1     -41.423  41.335  31.255  1.00  0.00     0.023 H 
ENDBRANCH  14  17
ENDBRANCH   1  14
BRANCH   3  21
ATOM     21  N   UNL     1     -45.032  42.654  25.524  1.00  0.00    -0.381 N 
ATOM     22  H   UNL     1     -46.014  42.356  25.416  1.00  0.00     0.160 HD
BRANCH  21  23
ATOM     23  C   UNL     1     -44.358  42.616  24.220  1.00  0.00     0.038 C 
ATOM     24  H   UNL     1     -45.077  42.345  23.437  1.00  0.00     0.051 H 
ATOM     25  H   UNL     1     -43.547  41.880  24.234  1.00  0.00     0.051 H 
BRANCH  23  26
ATOM     26  C   UNL     1     -43.762  43.995  23.908  1.00  0.00     0.063 C 
ATOM     27  H   UNL     1     -44.188  44.753  24.575  1.00  0.00     0.059 H 
ATOM     28  H   UNL     1     -42.675  43.963  24.048  1.00  0.00     0.059 H 
BRANCH  26  29
ATOM     29  O   UNL     1     -44.044  44.335  22.546  1.00  0.00    -0.383 OA
BRANCH  29  30
ATOM     30  C   UNL     1     -43.102  45.270  22.035  1.00  0.00     0.036 C 
ATOM     31  H   UNL     1     -43.602  46.010  21.403  1.00  0.00     0.053 H 
ATOM     32  H   UNL     1     -42.638  45.787  22.879  1.00  0.00     0.053 H 
ATOM     33  H   UNL     1     -42.321  44.754  21.468  1.00  0.00     0.053 H 
ENDBRANCH  29  30
ENDBRANCH  26  29
ENDBRANCH  23  26
ENDBRANCH  21  23
ENDBRANCH   3  21
BRANCH   7  34
ATOM     34  O   UNL     1     -46.848  36.958  27.600  1.00  0.00    -0.487 OA
BRANCH  34  35
ATOM     35  C   UNL     1     -46.415  35.808  26.868  1.00  0.00     0.115 C 
ATOM     36  H   UNL     1     -46.039  36.174  25.905  1.00  0.00     0.076 H 
ATOM     37  H   UNL     1     -45.560  35.328  27.361  1.00  0.00     0.076 H 
BRANCH  35  38
ATOM     38  C   UNL     1     -47.532  34.839  26.575  1.00  0.00     0.010 A 
ATOM     39  C   UNL     1     -48.840  35.151  26.917  1.00  0.00     0.034 A 
ATOM     40  C   UNL     1     -47.293  33.580  26.004  1.00  0.00    -0.028 A 
ATOM     41  N   UNL     1     -49.888  34.329  26.708  1.00  0.00    -0.262 NA
ATOM     42  H   UNL     1     -49.097  36.100  27.380  1.00  0.00     0.084 H 
ATOM     43  C   UNL     1     -48.351  32.696  25.767  1.00  0.00     0.066 A 
ATOM     44  H   UNL     1     -46.271  33.334  25.733  1.00  0.00     0.065 H 
ATOM     45  C   UNL     1     -49.621  33.128  26.137  1.00  0.00     0.051 A 
ATOM     46  H   UNL     1     -50.513  32.522  26.018  1.00  0.00     0.086 H 
BRANCH  43  47
ATOM     47  N   UNL     1     -48.156  31.408  25.170  1.00  0.00    -0.299 N 
ATOM     48  C   UNL     1     -48.771  30.236  25.588  1.00  0.00     0.018 A 
ATOM     49  C   UNL     1     -47.337  31.077  24.091  1.00  0.00     0.150 A 
ATOM     50  C   UNL     1     -48.395  29.176  24.780  1.00  0.00     0.012 A 
ATOM     51  H   UNL     1     -49.464  30.234  26.417  1.00  0.00     0.083 H 
ATOM     52  C   UNL     1     -47.467  29.714  23.834  1.00  0.00     0.067 A 
ATOM     53  N   UNL     1     -46.522  31.912  23.413  1.00  0.00    -0.218 NA
ATOM     54  C   UNL     1     -46.705  29.191  22.774  1.00  0.00     0.136 A 
ATOM     55  C   UNL     1     -45.850  31.300  22.429  1.00  0.00     0.120 A 
ATOM     56  N   UNL     1     -45.900  30.008  22.074  1.00  0.00    -0.219 NA
ATOM     57  H   UNL     1     -45.182  31.927  21.847  1.00  0.00     0.106 H 
BRANCH  50  58
ATOM     58  C   UNL     1     -48.823  27.742  24.883  1.00  0.00     0.085 C 
ATOM     59  C   UNL     1     -48.093  26.910  25.932  1.00  0.00    -0.020 C 
ATOM     60  O   UNL     1     -50.231  27.626  25.208  1.00  0.00    -0.373 OA
ATOM     61  H   UNL     1     -48.696  27.272  23.898  1.00  0.00     0.066 H 
ATOM     62  C   UNL     1     -49.094  25.821  26.224  1.00  0.00    -0.027 C 
ATOM     63  H   UNL     1     -47.130  26.530  25.578  1.00  0.00     0.030 H 
ATOM     64  H   UNL     1     -47.914  27.485  26.849  1.00  0.00     0.030 H 
ATOM     65  C   UNL     1     -50.393  26.591  26.188  1.00  0.00     0.048 C 
ATOM     66  H   UNL     1     -48.926  25.312  27.177  1.00  0.00     0.029 H 
ATOM     67  H   UNL     1     -49.075  25.074  25.423  1.00  0.00     0.029 H 
ATOM     68  H   UNL     1     -51.248  25.963  25.921  1.00  0.00     0.057 H 
ATOM     69  H   UNL     1     -50.600  27.072  27.150  1.00  0.00     0.057 H 
ENDBRANCH  50  58
BRANCH  54  70
ATOM     70  N   UNL     1     -46.741  27.857  22.385  1.00  0.00    -0.383 N 
ATOM     71  H   UNL     1     -46.519  27.738  21.396  1.00  0.00     0.158 HD
ATOM     72  H   UNL     1     -46.193  27.293  23.023  1.00  0.00     0.158 HD
ENDBRANCH  54  70
ENDBRANCH  43  47
ENDBRANCH  35  38
ENDBRANCH  34  35
ENDBRANCH   7  34
TORSDOF 13
ENDMDL
MODEL 3
REMARK VINA RESULT:      -8.4      2.183     12.322
REMARK SMILES CCc1cc(NCCOC)c2ncc(OCc3cncc(-n4cc([C@H]5CCCO5)c5c(N)ncnc54)c3)cc2n1
REMARK SMILES IDX 3 1 4 2 5 3 11 4 12 5 13 6 14 7 38 8 39 9 40 10 2 14 1 17
REMARK SMILES IDX 6 21 7 23 8 26 9 29 10 30 15 34 16 35 17 38 18 39 37 40
REMARK SMILES IDX 19 41 21 43 20 45 22 47 23 48 36 49 24 50 30 52 35 53 31 54
REMARK SMILES IDX 34 55 33 56 25 58 26 59 29 60 27 62 28 65 32 70
REMARK H PARENT 4 11 13 12 38 13 2 15 2 16 1 18 1 19 1 20 6 22 7 24 7 25 8 27
REMARK H PARENT 8 28 10 31 10 32 10 33 16 36 16 37 18 42 37 44 20 46 23 51
REMARK H PARENT 34 57 25 61 26 63 26 64 27 66 27 67 28 68 28 69 32 71 32 72
REMARK Flexibility Score: inf
ROOT
ATOM      1  C   UNL     1     -43.517  41.477  27.404  1.00  0.00     0.043 A 
ATOM      2  C   UNL     1     -44.529  42.192  26.780  1.00  0.00    -0.015 A 
ATOM      3  C   UNL     1     -45.716  41.538  26.442  1.00  0.00     0.064 A 
ATOM      4  C   UNL     1     -45.887  40.186  26.783  1.00  0.00     0.112 A 
ATOM      5  N   UNL     1     -47.042  39.541  26.484  1.00  0.00    -0.249 NA
ATOM      6  C   UNL     1     -47.134  38.239  26.832  1.00  0.00     0.070 A 
ATOM      7  C   UNL     1     -46.126  37.524  27.460  1.00  0.00     0.140 A 
ATOM      8  C   UNL     1     -44.952  38.211  27.753  1.00  0.00     0.010 A 
ATOM      9  C   UNL     1     -44.802  39.551  27.421  1.00  0.00     0.095 A 
ATOM     10  N   UNL     1     -43.643  40.169  27.722  1.00  0.00    -0.251 NA
ATOM     11  H   UNL     1     -44.403  43.250  26.582  1.00  0.00     0.066 H 
ATOM     12  H   UNL     1     -48.079  37.763  26.581  1.00  0.00     0.088 H 
ATOM     13  H   UNL     1     -44.119  37.734  28.255  1.00  0.00     0.069 H 
ENDROOT
BRANCH   1  14
ATOM     14  C   UNL     1     -42.232  42.154  27.802  1.00  0.00    -0.013 C 
ATOM     15  H   UNL     1     -42.430  43.195  28.086  1.00  0.00     0.033 H 
ATOM     16  H   UNL     1     -41.561  42.189  26.936  1.00  0.00     0.033 H 
BRANCH  14  17
ATOM     17  C   UNL     1     -41.544  41.423  28.944  1.00  0.00    -0.060 C 
ATOM     18  H   UNL     1     -41.607  42.013  29.864  1.00  0.00     0.023 H 
ATOM     19  H   UNL     1     -40.486  41.248  28.723  1.00  0.00     0.023 H 
ATOM     20  H   UNL     1     -42.012  40.450  29.133  1.00  0.00     0.023 H 
ENDBRANCH  14  17
ENDBRANCH   1  14
BRANCH   3  21
ATOM     21  N   UNL     1     -46.801  42.246  25.848  1.00  0.00    -0.381 N 
ATOM     22  H   UNL     1     -46.750  42.062  24.834  1.00  0.00     0.160 HD
BRANCH  21  23
ATOM     23  C   UNL     1     -46.818  43.695  26.086  1.00  0.00     0.038 C 
ATOM     24  H   UNL     1     -46.884  44.229  25.130  1.00  0.00     0.051 H 
ATOM     25  H   UNL     1     -45.906  44.003  26.607  1.00  0.00     0.051 H 
BRANCH  23  26
ATOM     26  C   UNL     1     -48.027  44.060  26.957  1.00  0.00     0.063 C 
ATOM     27  H   UNL     1     -48.175  43.305  27.738  1.00  0.00     0.059 H 
ATOM     28  H   UNL     1     -47.856  45.035  27.428  1.00  0.00     0.059 H 
BRANCH  26  29
ATOM     29  O   UNL     1     -49.197  44.141  26.135  1.00  0.00    -0.383 OA
BRANCH  29  30
ATOM     30  C   UNL     1     -49.255  45.373  25.429  1.00  0.00     0.036 C 
ATOM     31  H   UNL     1     -48.606  45.340  24.549  1.00  0.00     0.053 H 
ATOM     32  H   UNL     1     -50.285  45.531  25.098  1.00  0.00     0.053 H 
ATOM     33  H   UNL     1     -48.966  46.202  26.081  1.00  0.00     0.053 H 
ENDBRANCH  29  30
ENDBRANCH  26  29
ENDBRANCH  23  26
ENDBRANCH  21  23
ENDBRANCH   3  21
BRANCH   7  34
ATOM     34  O   UNL     1     -46.403  36.216  27.729  1.00  0.00    -0.487 OA
BRANCH  34  35
ATOM     35  C   UNL     1     -46.264  35.252  26.682  1.00  0.00     0.115 C 
ATOM     36  H   UNL     1     -46.055  35.816  25.765  1.00  0.00     0.076 H 
ATOM     37  H   UNL     1     -45.385  34.616  26.849  1.00  0.00     0.076 H 
BRANCH  35  38
ATOM     38  C   UNL     1     -47.519  34.453  26.444  1.00  0.00     0.010 A 
ATOM     39  C   UNL     1     -48.753  34.950  26.839  1.00  0.00     0.034 A 
ATOM     40  C   UNL     1     -47.488  33.173  25.871  1.00  0.00    -0.028 A 
ATOM     41  N   UNL     1     -49.916  34.286  26.680  1.00  0.00    -0.262 NA
ATOM     42  H   UNL     1     -48.851  35.926  27.307  1.00  0.00     0.084 H 
ATOM     43  C   UNL     1     -48.670  32.450  25.684  1.00  0.00     0.066 A 
ATOM     44  H   UNL     1     -46.524  32.784  25.558  1.00  0.00     0.065 H 
ATOM     45  C   UNL     1     -49.849  33.060  26.106  1.00  0.00     0.051 A 
ATOM     46  H   UNL     1     -50.822  32.587  26.029  1.00  0.00     0.086 H 
BRANCH  43  47
ATOM     47  N   UNL     1     -48.688  31.147  25.088  1.00  0.00    -0.299 N 
ATOM     48  C   UNL     1     -48.382  29.965  25.748  1.00  0.00     0.018 A 
ATOM     49  C   UNL     1     -49.000  30.811  23.771  1.00  0.00     0.150 A 
ATOM     50  C   UNL     1     -48.527  28.882  24.897  1.00  0.00     0.012 A 
ATOM     51  H   UNL     1     -48.108  29.964  26.793  1.00  0.00     0.083 H 
ATOM     52  C   UNL     1     -48.908  29.427  23.631  1.00  0.00     0.067 A 
ATOM     53  N   UNL     1     -49.310  31.665  22.774  1.00  0.00    -0.218 NA
ATOM     54  C   UNL     1     -49.183  28.898  22.358  1.00  0.00     0.136 A 
ATOM     55  C   UNL     1     -49.552  31.044  21.612  1.00  0.00     0.120 A 
ATOM     56  N   UNL     1     -49.512  29.729  21.354  1.00  0.00    -0.219 NA
ATOM     57  H   UNL     1     -49.812  31.684  20.775  1.00  0.00     0.106 H 
BRANCH  50  58
ATOM     58  C   UNL     1     -48.296  27.432  25.203  1.00  0.00     0.085 C 
ATOM     59  C   UNL     1     -48.138  27.088  26.680  1.00  0.00    -0.020 C 
ATOM     60  O   UNL     1     -49.386  26.605  24.727  1.00  0.00    -0.373 OA
ATOM     61  H   UNL     1     -47.400  27.103  24.660  1.00  0.00     0.066 H 
ATOM     62  C   UNL     1     -48.546  25.637  26.711  1.00  0.00    -0.027 C 
ATOM     63  H   UNL     1     -47.123  27.261  27.051  1.00  0.00     0.030 H 
ATOM     64  H   UNL     1     -48.830  27.666  27.305  1.00  0.00     0.030 H 
ATOM     65  C   UNL     1     -49.694  25.627  25.730  1.00  0.00     0.048 C 
ATOM     66  H   UNL     1     -48.829  25.280  27.705  1.00  0.00     0.029 H 
ATOM     67  H   UNL     1     -47.725  25.012  26.339  1.00  0.00     0.029 H 
ATOM     68  H   UNL     1     -49.837  24.650  25.259  1.00  0.00     0.057 H 
ATOM     69  H   UNL     1     -50.632  25.925  26.210  1.00  0.00     0.057 H 
ENDBRANCH  50  58
BRANCH  54  70
ATOM     70  N   UNL     1     -49.152  27.539  22.065  1.00  0.00    -0.383 N 
ATOM     71  H   UNL     1     -48.218  27.223  21.803  1.00  0.00     0.158 HD
ATOM     72  H   UNL     1     -49.595  27.013  22.809  1.00  0.00     0.158 HD
ENDBRANCH  54  70
ENDBRANCH  43  47
ENDBRANCH  35  38
ENDBRANCH  34  35
ENDBRANCH   7  34
TORSDOF 13
ENDMDL
MODEL 4
REMARK VINA RESULT:      -8.4      2.028      2.887
REMARK SMILES CCc1cc(NCCOC)c2ncc(OCc3cncc(-n4cc([C@H]5CCCO5)c5c(N)ncnc54)c3)cc2n1
REMARK SMILES IDX 3 1 4 2 5 3 11 4 12 5 13 6 14 7 38 8 39 9 40 10 2 14 1 17
REMARK SMILES IDX 6 21 7 23 8 26 9 29 10 30 15 34 16 35 17 38 18 39 37 40
REMARK SMILES IDX 19 41 21 43 20 45 22 47 23 48 36 49 24 50 30 52 35 53 31 54
REMARK SMILES IDX 34 55 33 56 25 58 26 59 29 60 27 62 28 65 32 70
REMARK H PARENT 4 11 13 12 38 13 2 15 2 16 1 18 1 19 1 20 6 22 7 24 7 25 8 27
REMARK H PARENT 8 28 10 31 10 32 10 33 16 36 16 37 18 42 37 44 20 46 23 51
REMARK H PARENT 34 57 25 61 26 63 26 64 27 66 27 67 28 68 28 69 32 71 32 72
REMARK Flexibility Score: inf
ROOT
ATOM      1  C   UNL     1     -46.382  30.263  22.825  1.00  0.00     0.043 A 
ATOM      2  C   UNL     1     -47.619  29.635  22.841  1.00  0.00    -0.015 A 
ATOM      3  C   UNL     1     -48.584  30.057  23.759  1.00  0.00     0.064 A 
ATOM      4  C   UNL     1     -48.307  31.137  24.613  1.00  0.00     0.112 A 
ATOM      5  N   UNL     1     -49.240  31.575  25.495  1.00  0.00    -0.249 NA
ATOM      6  C   UNL     1     -48.901  32.611  26.293  1.00  0.00     0.070 A 
ATOM      7  C   UNL     1     -47.667  33.242  26.275  1.00  0.00     0.140 A 
ATOM      8  C   UNL     1     -46.730  32.771  25.361  1.00  0.00     0.010 A 
ATOM      9  C   UNL     1     -47.023  31.710  24.514  1.00  0.00     0.095 A 
ATOM     10  N   UNL     1     -46.078  31.288  23.652  1.00  0.00    -0.251 NA
ATOM     11  H   UNL     1     -47.837  28.846  22.131  1.00  0.00     0.066 H 
ATOM     12  H   UNL     1     -49.681  32.936  26.978  1.00  0.00     0.088 H 
ATOM     13  H   UNL     1     -45.746  33.214  25.269  1.00  0.00     0.069 H 
ENDROOT
BRANCH   1  14
ATOM     14  C   UNL     1     -45.325  29.849  21.834  1.00  0.00    -0.013 C 
ATOM     15  H   UNL     1     -44.681  30.704  21.596  1.00  0.00     0.033 H 
ATOM     16  H   UNL     1     -45.808  29.550  20.897  1.00  0.00     0.033 H 
BRANCH  14  17
ATOM     17  C   UNL     1     -44.486  28.695  22.361  1.00  0.00    -0.060 C 
ATOM     18  H   UNL     1     -44.554  28.645  23.453  1.00  0.00     0.023 H 
ATOM     19  H   UNL     1     -43.432  28.815  22.090  1.00  0.00     0.023 H 
ATOM     20  H   UNL     1     -44.830  27.737  21.956  1.00  0.00     0.023 H 
ENDBRANCH  14  17
ENDBRANCH   1  14
BRANCH   3  21
ATOM     21  N   UNL     1     -49.886  29.476  23.775  1.00  0.00    -0.381 N 
ATOM     22  H   UNL     1     -50.047  29.149  24.740  1.00  0.00     0.160 HD
BRANCH  21  23
ATOM     23  C   UNL     1     -50.096  28.368  22.836  1.00  0.00     0.038 C 
ATOM     24  H   UNL     1     -49.187  28.205  22.242  1.00  0.00     0.051 H 
ATOM     25  H   UNL     1     -50.929  28.594  22.163  1.00  0.00     0.051 H 
BRANCH  23  26
ATOM     26  C   UNL     1     -50.428  27.088  23.615  1.00  0.00     0.063 C 
ATOM     27  H   UNL     1     -51.513  26.933  23.645  1.00  0.00     0.059 H 
ATOM     28  H   UNL     1     -49.956  26.229  23.124  1.00  0.00     0.059 H 
BRANCH  26  29
ATOM     29  O   UNL     1     -49.919  27.198  24.948  1.00  0.00    -0.383 OA
BRANCH  29  30
ATOM     30  C   UNL     1     -50.797  26.604  25.894  1.00  0.00     0.036 C 
ATOM     31  H   UNL     1     -50.556  26.944  26.906  1.00  0.00     0.053 H 
ATOM     32  H   UNL     1     -51.819  26.912  25.656  1.00  0.00     0.053 H 
ATOM     33  H   UNL     1     -50.738  25.513  25.838  1.00  0.00     0.053 H 
ENDBRANCH  29  30
ENDBRANCH  26  29
ENDBRANCH  23  26
ENDBRANCH  21  23
ENDBRANCH   3  21
BRANCH   7  34
ATOM     34  O   UNL     1     -47.511  34.269  27.158  1.00  0.00    -0.487 OA
BRANCH  34  35
ATOM     35  C   UNL     1     -47.828  35.597  26.733  1.00  0.00     0.115 C 
ATOM     36  H   UNL     1     -47.718  35.611  25.642  1.00  0.00     0.076 H 
ATOM     37  H   UNL     1     -48.883  35.831  26.930  1.00  0.00     0.076 H 
BRANCH  35  38
ATOM     38  C   UNL     1     -46.892  36.637  27.294  1.00  0.00     0.010 A 
ATOM     39  C   UNL     1     -46.079  36.337  28.377  1.00  0.00     0.034 A 
ATOM     40  C   UNL     1     -46.844  37.944  26.787  1.00  0.00    -0.028 A 
ATOM     41  N   UNL     1     -45.232  37.219  28.947  1.00  0.00    -0.262 NA
ATOM     42  H   UNL     1     -46.077  35.351  28.833  1.00  0.00     0.084 H 
ATOM     43  C   UNL     1     -45.979  38.891  27.346  1.00  0.00     0.066 A 
ATOM     44  H   UNL     1     -47.477  38.180  25.938  1.00  0.00     0.065 H 
ATOM     45  C   UNL     1     -45.199  38.467  28.419  1.00  0.00     0.051 A 
ATOM     46  H   UNL     1     -44.507  39.118  28.943  1.00  0.00     0.086 H 
BRANCH  43  47
ATOM     47  N   UNL     1     -45.883  40.231  26.851  1.00  0.00    -0.299 N 
ATOM     48  C   UNL     1     -44.699  40.877  26.523  1.00  0.00     0.018 A 
ATOM     49  C   UNL     1     -46.920  41.133  26.609  1.00  0.00     0.150 A 
ATOM     50  C   UNL     1     -44.955  42.150  26.044  1.00  0.00     0.012 A 
ATOM     51  H   UNL     1     -43.746  40.378  26.623  1.00  0.00     0.083 H 
ATOM     52  C   UNL     1     -46.375  42.316  26.114  1.00  0.00     0.067 A 
ATOM     53  N   UNL     1     -48.234  40.929  26.838  1.00  0.00    -0.218 NA
ATOM     54  C   UNL     1     -47.275  43.354  25.815  1.00  0.00     0.136 A 
ATOM     55  C   UNL     1     -48.989  41.986  26.515  1.00  0.00     0.120 A 
ATOM     56  N   UNL     1     -48.590  43.166  26.018  1.00  0.00    -0.219 NA
ATOM     57  H   UNL     1     -50.057  41.876  26.674  1.00  0.00     0.106 H 
BRANCH  50  58
ATOM     58  C   UNL     1     -43.966  43.178  25.582  1.00  0.00     0.085 C 
ATOM     59  C   UNL     1     -42.499  42.826  25.804  1.00  0.00    -0.020 C 
ATOM     60  O   UNL     1     -44.092  43.441  24.163  1.00  0.00    -0.373 OA
ATOM     61  H   UNL     1     -44.189  44.125  26.092  1.00  0.00     0.066 H 
ATOM     62  C   UNL     1     -41.812  43.656  24.749  1.00  0.00    -0.027 C 
ATOM     63  H   UNL     1     -42.157  43.047  26.819  1.00  0.00     0.030 H 
ATOM     64  H   UNL     1     -42.304  41.765  25.604  1.00  0.00     0.030 H 
ATOM     65  C   UNL     1     -42.778  43.531  23.594  1.00  0.00     0.048 C 
ATOM     66  H   UNL     1     -40.805  43.311  24.503  1.00  0.00     0.029 H 
ATOM     67  H   UNL     1     -41.752  44.700  25.078  1.00  0.00     0.029 H 
ATOM     68  H   UNL     1     -42.730  44.384  22.911  1.00  0.00     0.057 H 
ATOM     69  H   UNL     1     -42.599  42.614  23.021  1.00  0.00     0.057 H 
ENDBRANCH  50  58
BRANCH  54  70
ATOM     70  N   UNL     1     -46.887  44.584  25.297  1.00  0.00    -0.383 N 
ATOM     71  H   UNL     1     -47.686  45.152  25.015  1.00  0.00     0.158 HD
ATOM     72  H   UNL     1     -46.234  45.036  25.926  1.00  0.00     0.158 HD
ENDBRANCH  54  70
ENDBRANCH  43  47
ENDBRANCH  35  38
ENDBRANCH  34  35
ENDBRANCH   7  34
TORSDOF 13
ENDMDL
MODEL 5
REMARK VINA RESULT:      -8.3      1.838      2.258
REMARK SMILES CCc1cc(NCCOC)c2ncc(OCc3cncc(-n4cc([C@H]5CCCO5)c5c(N)ncnc54)c3)cc2n1
REMARK SMILES IDX 3 1 4 2 5 3 11 4 12 5 13 6 14 7 38 8 39 9 40 10 2 14 1 17
REMARK SMILES IDX 6 21 7 23 8 26 9 29 10 30 15 34 16 35 17 38 18 39 37 40
REMARK SMILES IDX 19 41 21 43 20 45 22 47 23 48 36 49 24 50 30 52 35 53 31 54
REMARK SMILES IDX 34 55 33 56 25 58 26 59 29 60 27 62 28 65 32 70
REMARK H PARENT 4 11 13 12 38 13 2 15 2 16 1 18 1 19 1 20 6 22 7 24 7 25 8 27
REMARK H PARENT 8 28 10 31 10 32 10 33 16 36 16 37 18 42 37 44 20 46 23 51
REMARK H PARENT 34 57 25 61 26 63 26 64 27 66 27 67 28 68 28 69 32 71 32 72
REMARK Flexibility Score: inf
ROOT
ATOM      1  C   UNL     1     -46.330  30.965  22.616  1.00  0.00     0.043 A 
ATOM      2  C   UNL     1     -47.152  29.953  23.090  1.00  0.00    -0.015 A 
ATOM      3  C   UNL     1     -47.864  30.152  24.276  1.00  0.00     0.064 A 
ATOM      4  C   UNL     1     -47.776  31.386  24.941  1.00  0.00     0.112 A 
ATOM      5  N   UNL     1     -48.477  31.607  26.080  1.00  0.00    -0.249 NA
ATOM      6  C   UNL     1     -48.336  32.813  26.673  1.00  0.00     0.070 A 
ATOM      7  C   UNL     1     -47.518  33.826  26.199  1.00  0.00     0.140 A 
ATOM      8  C   UNL     1     -46.811  33.572  25.029  1.00  0.00     0.010 A 
ATOM      9  C   UNL     1     -46.917  32.351  24.375  1.00  0.00     0.095 A 
ATOM     10  N   UNL     1     -46.205  32.153  23.249  1.00  0.00    -0.251 NA
ATOM     11  H   UNL     1     -47.257  29.031  22.530  1.00  0.00     0.066 H 
ATOM     12  H   UNL     1     -48.922  32.950  27.578  1.00  0.00     0.088 H 
ATOM     13  H   UNL     1     -46.159  34.312  24.580  1.00  0.00     0.069 H 
ENDROOT
BRANCH   1  14
ATOM     14  C   UNL     1     -45.565  30.793  21.330  1.00  0.00    -0.013 C 
ATOM     15  H   UNL     1     -45.636  29.753  20.990  1.00  0.00     0.033 H 
ATOM     16  H   UNL     1     -44.503  30.989  21.516  1.00  0.00     0.033 H 
BRANCH  14  17
ATOM     17  C   UNL     1     -46.071  31.733  20.248  1.00  0.00    -0.060 C 
ATOM     18  H   UNL     1     -45.254  32.359  19.877  1.00  0.00     0.023 H 
ATOM     19  H   UNL     1     -46.858  32.391  20.631  1.00  0.00     0.023 H 
ATOM     20  H   UNL     1     -46.485  31.177  19.399  1.00  0.00     0.023 H 
ENDBRANCH  14  17
ENDBRANCH   1  14
BRANCH   3  21
ATOM     21  N   UNL     1     -48.761  29.161  24.770  1.00  0.00    -0.381 N 
ATOM     22  H   UNL     1     -48.968  29.416  25.748  1.00  0.00     0.160 HD
BRANCH  21  23
ATOM     23  C   UNL     1     -48.269  27.778  24.715  1.00  0.00     0.038 C 
ATOM     24  H   UNL     1     -47.179  27.775  24.579  1.00  0.00     0.051 H 
ATOM     25  H   UNL     1     -48.736  27.244  23.882  1.00  0.00     0.051 H 
BRANCH  23  26
ATOM     26  C   UNL     1     -48.620  27.054  26.021  1.00  0.00     0.063 C 
ATOM     27  H   UNL     1     -49.109  27.743  26.718  1.00  0.00     0.059 H 
ATOM     28  H   UNL     1     -49.297  26.220  25.805  1.00  0.00     0.059 H 
BRANCH  26  29
ATOM     29  O   UNL     1     -47.423  26.537  26.613  1.00  0.00    -0.383 OA
BRANCH  29  30
ATOM     30  C   UNL     1     -47.480  25.124  26.760  1.00  0.00     0.036 C 
ATOM     31  H   UNL     1     -47.315  24.841  27.804  1.00  0.00     0.053 H 
ATOM     32  H   UNL     1     -48.476  24.787  26.459  1.00  0.00     0.053 H 
ATOM     33  H   UNL     1     -46.738  24.642  26.115  1.00  0.00     0.053 H 
ENDBRANCH  29  30
ENDBRANCH  26  29
ENDBRANCH  23  26
ENDBRANCH  21  23
ENDBRANCH   3  21
BRANCH   7  34
ATOM     34  O   UNL     1     -47.505  34.974  26.935  1.00  0.00    -0.487 OA
BRANCH  34  35
ATOM     35  C   UNL     1     -46.550  35.988  26.614  1.00  0.00     0.115 C 
ATOM     36  H   UNL     1     -45.637  35.745  27.171  1.00  0.00     0.076 H 
ATOM     37  H   UNL     1     -46.273  35.944  25.553  1.00  0.00     0.076 H 
BRANCH  35  38
ATOM     38  C   UNL     1     -46.984  37.366  27.041  1.00  0.00     0.010 A 
ATOM     39  C   UNL     1     -48.133  37.536  27.801  1.00  0.00     0.034 A 
ATOM     40  C   UNL     1     -46.288  38.520  26.650  1.00  0.00    -0.028 A 
ATOM     41  N   UNL     1     -48.597  38.737  28.203  1.00  0.00    -0.262 NA
ATOM     42  H   UNL     1     -48.732  36.690  28.125  1.00  0.00     0.084 H 
ATOM     43  C   UNL     1     -46.732  39.786  27.046  1.00  0.00     0.066 A 
ATOM     44  H   UNL     1     -45.388  38.390  26.058  1.00  0.00     0.065 H 
ATOM     45  C   UNL     1     -47.888  39.827  27.822  1.00  0.00     0.051 A 
ATOM     46  H   UNL     1     -48.335  40.752  28.171  1.00  0.00     0.086 H 
BRANCH  43  47
ATOM     47  N   UNL     1     -46.044  40.989  26.685  1.00  0.00    -0.299 N 
ATOM     48  C   UNL     1     -46.606  42.049  25.987  1.00  0.00     0.018 A 
ATOM     49  C   UNL     1     -44.717  41.329  26.945  1.00  0.00     0.150 A 
ATOM     50  C   UNL     1     -45.685  43.070  25.830  1.00  0.00     0.012 A 
ATOM     51  H   UNL     1     -47.639  42.024  25.672  1.00  0.00     0.083 H 
ATOM     52  C   UNL     1     -44.474  42.601  26.431  1.00  0.00     0.067 A 
ATOM     53  N   UNL     1     -43.795  40.561  27.562  1.00  0.00    -0.218 NA
ATOM     54  C   UNL     1     -43.175  43.116  26.593  1.00  0.00     0.136 A 
ATOM     55  C   UNL     1     -42.599  41.158  27.658  1.00  0.00     0.120 A 
ATOM     56  N   UNL     1     -42.246  42.375  27.221  1.00  0.00    -0.219 NA
ATOM     57  H   UNL     1     -41.819  40.586  28.151  1.00  0.00     0.106 H 
BRANCH  50  58
ATOM     58  C   UNL     1     -45.877  44.387  25.138  1.00  0.00     0.085 C 
ATOM     59  C   UNL     1     -47.307  44.707  24.718  1.00  0.00    -0.020 C 
ATOM     60  O   UNL     1     -45.461  45.495  25.974  1.00  0.00    -0.373 OA
ATOM     61  H   UNL     1     -45.229  44.409  24.252  1.00  0.00     0.066 H 
ATOM     62  C   UNL     1     -47.290  46.214  24.662  1.00  0.00    -0.027 C 
ATOM     63  H   UNL     1     -47.586  44.241  23.769  1.00  0.00     0.030 H 
ATOM     64  H   UNL     1     -48.032  44.388  25.478  1.00  0.00     0.030 H 
ATOM     65  C   UNL     1     -46.427  46.548  25.856  1.00  0.00     0.048 C 
ATOM     66  H   UNL     1     -48.283  46.669  24.710  1.00  0.00     0.029 H 
ATOM     67  H   UNL     1     -46.801  46.546  23.738  1.00  0.00     0.029 H 
ATOM     68  H   UNL     1     -45.915  47.509  25.749  1.00  0.00     0.057 H 
ATOM     69  H   UNL     1     -47.015  46.567  26.780  1.00  0.00     0.057 H 
ENDBRANCH  50  58
BRANCH  54  70
ATOM     70  N   UNL     1     -42.785  44.375  26.152  1.00  0.00    -0.383 N 
ATOM     71  H   UNL     1     -42.616  44.394  25.146  1.00  0.00     0.158 HD
ATOM     72  H   UNL     1     -43.424  45.079  26.498  1.00  0.00     0.158 HD
ENDBRANCH  54  70
ENDBRANCH  43  47
ENDBRANCH  35  38
ENDBRANCH  34  35
ENDBRANCH   7  34
TORSDOF 13
ENDMDL
MODEL 6
REMARK VINA RESULT:      -8.3      2.096     11.830
REMARK SMILES CCc1cc(NCCOC)c2ncc(OCc3cncc(-n4cc([C@H]5CCCO5)c5c(N)ncnc54)c3)cc2n1
REMARK SMILES IDX 3 1 4 2 5 3 11 4 12 5 13 6 14 7 38 8 39 9 40 10 2 14 1 17
REMARK SMILES IDX 6 21 7 23 8 26 9 29 10 30 15 34 16 35 17 38 18 39 37 40
REMARK SMILES IDX 19 41 21 43 20 45 22 47 23 48 36 49 24 50 30 52 35 53 31 54
REMARK SMILES IDX 34 55 33 56 25 58 26 59 29 60 27 62 28 65 32 70
REMARK H PARENT 4 11 13 12 38 13 2 15 2 16 1 18 1 19 1 20 6 22 7 24 7 25 8 27
REMARK H PARENT 8 28 10 31 10 32 10 33 16 36 16 37 18 42 37 44 20 46 23 51
REMARK H PARENT 34 57 25 61 26 63 26 64 27 66 27 67 28 68 28 69 32 71 32 72
REMARK Flexibility Score: inf
ROOT
ATOM      1  C   UNL     1     -46.975  42.397  26.271  1.00  0.00     0.043 A 
ATOM      2  C   UNL     1     -45.603  42.591  26.219  1.00  0.00    -0.015 A 
ATOM      3  C   UNL     1     -44.754  41.577  26.668  1.00  0.00     0.064 A 
ATOM      4  C   UNL     1     -45.298  40.362  27.117  1.00  0.00     0.112 A 
ATOM      5  N   UNL     1     -44.489  39.357  27.534  1.00  0.00    -0.249 NA
ATOM      6  C   UNL     1     -45.081  38.221  27.963  1.00  0.00     0.070 A 
ATOM      7  C   UNL     1     -46.452  38.024  28.013  1.00  0.00     0.140 A 
ATOM      8  C   UNL     1     -47.257  39.072  27.579  1.00  0.00     0.010 A 
ATOM      9  C   UNL     1     -46.705  40.263  27.125  1.00  0.00     0.095 A 
ATOM     10  N   UNL     1     -47.528  41.250  26.722  1.00  0.00    -0.251 NA
ATOM     11  H   UNL     1     -45.199  43.511  25.809  1.00  0.00     0.066 H 
ATOM     12  H   UNL     1     -44.396  37.439  28.281  1.00  0.00     0.088 H 
ATOM     13  H   UNL     1     -48.338  38.999  27.569  1.00  0.00     0.069 H 
ENDROOT
BRANCH   1  14
ATOM     14  C   UNL     1     -47.920  43.461  25.776  1.00  0.00    -0.013 C 
ATOM     15  H   UNL     1     -47.855  43.539  24.683  1.00  0.00     0.033 H 
ATOM     16  H   UNL     1     -47.609  44.432  26.177  1.00  0.00     0.033 H 
BRANCH  14  17
ATOM     17  C   UNL     1     -49.353  43.175  26.195  1.00  0.00    -0.060 C 
ATOM     18  H   UNL     1     -49.800  44.066  26.649  1.00  0.00     0.023 H 
ATOM     19  H   UNL     1     -49.397  42.362  26.927  1.00  0.00     0.023 H 
ATOM     20  H   UNL     1     -49.969  42.887  25.336  1.00  0.00     0.023 H 
ENDBRANCH  14  17
ENDBRANCH   1  14
BRANCH   3  21
ATOM     21  N   UNL     1     -43.338  41.712  26.582  1.00  0.00    -0.381 N 
ATOM     22  H   UNL     1     -42.936  40.896  27.069  1.00  0.00     0.160 HD
BRANCH  21  23
ATOM     23  C   UNL     1     -42.784  42.947  27.152  1.00  0.00     0.038 C 
ATOM     24  H   UNL     1     -43.470  43.784  26.964  1.00  0.00     0.051 H 
ATOM     25  H   UNL     1     -41.813  43.171  26.699  1.00  0.00     0.051 H 
BRANCH  23  26
ATOM     26  C   UNL     1     -42.593  42.777  28.665  1.00  0.00     0.063 C 
ATOM     27  H   UNL     1     -42.446  43.753  29.141  1.00  0.00     0.059 H 
ATOM     28  H   UNL     1     -43.481  42.298  29.093  1.00  0.00     0.059 H 
BRANCH  26  29
ATOM     29  O   UNL     1     -41.454  41.944  28.908  1.00  0.00    -0.383 OA
BRANCH  29  30
ATOM     30  C   UNL     1     -41.797  40.803  29.683  1.00  0.00     0.036 C 
ATOM     31  H   UNL     1     -42.411  40.113  29.096  1.00  0.00     0.053 H 
ATOM     32  H   UNL     1     -40.874  40.292  29.970  1.00  0.00     0.053 H 
ATOM     33  H   UNL     1     -42.328  41.103  30.591  1.00  0.00     0.053 H 
ENDBRANCH  29  30
ENDBRANCH  26  29
ENDBRANCH  23  26
ENDBRANCH  21  23
ENDBRANCH   3  21
BRANCH   7  34
ATOM     34  O   UNL     1     -46.863  36.810  28.478  1.00  0.00    -0.487 OA
BRANCH  34  35
ATOM     35  C   UNL     1     -46.396  35.627  27.823  1.00  0.00     0.115 C 
ATOM     36  H   UNL     1     -45.721  35.959  27.025  1.00  0.00     0.076 H 
ATOM     37  H   UNL     1     -45.783  35.019  28.501  1.00  0.00     0.076 H 
BRANCH  35  38
ATOM     38  C   UNL     1     -47.502  34.834  27.177  1.00  0.00     0.010 A 
ATOM     39  C   UNL     1     -48.815  35.278  27.243  1.00  0.00     0.034 A 
ATOM     40  C   UNL     1     -47.263  33.608  26.539  1.00  0.00    -0.028 A 
ATOM     41  N   UNL     1     -49.861  34.614  26.709  1.00  0.00    -0.262 NA
ATOM     42  H   UNL     1     -49.078  36.209  27.738  1.00  0.00     0.084 H 
ATOM     43  C   UNL     1     -48.317  32.886  25.968  1.00  0.00     0.066 A 
ATOM     44  H   UNL     1     -46.236  33.260  26.483  1.00  0.00     0.065 H 
ATOM     45  C   UNL     1     -49.588  33.442  26.084  1.00  0.00     0.051 A 
ATOM     46  H   UNL     1     -50.482  32.964  25.697  1.00  0.00     0.086 H 
BRANCH  43  47
ATOM     47  N   UNL     1     -48.117  31.639  25.292  1.00  0.00    -0.299 N 
ATOM     48  C   UNL     1     -48.767  30.453  25.601  1.00  0.00     0.018 A 
ATOM     49  C   UNL     1     -47.256  31.369  24.228  1.00  0.00     0.150 A 
ATOM     50  C   UNL     1     -48.374  29.444  24.738  1.00  0.00     0.012 A 
ATOM     51  H   UNL     1     -49.495  30.407  26.398  1.00  0.00     0.083 H 
ATOM     52  C   UNL     1     -47.397  30.029  23.871  1.00  0.00     0.067 A 
ATOM     53  N   UNL     1     -46.400  32.233  23.645  1.00  0.00    -0.218 NA
ATOM     54  C   UNL     1     -46.598  29.566  22.811  1.00  0.00     0.136 A 
ATOM     55  C   UNL     1     -45.695  31.678  22.651  1.00  0.00     0.120 A 
ATOM     56  N   UNL     1     -45.750  30.414  22.204  1.00  0.00    -0.219 NA
ATOM     57  H   UNL     1     -44.993  32.330  22.142  1.00  0.00     0.106 H 
BRANCH  50  58
ATOM     58  C   UNL     1     -48.828  28.015  24.723  1.00  0.00     0.085 C 
ATOM     59  C   UNL     1     -47.993  27.049  25.556  1.00  0.00    -0.020 C 
ATOM     60  O   UNL     1     -50.184  27.880  25.217  1.00  0.00    -0.373 OA
ATOM     61  H   UNL     1     -48.845  27.669  23.680  1.00  0.00     0.066 H 
ATOM     62  C   UNL     1     -48.980  25.947  25.846  1.00  0.00    -0.027 C 
ATOM     63  H   UNL     1     -47.097  26.702  25.033  1.00  0.00     0.030 H 
ATOM     64  H   UNL     1     -47.678  27.503  26.504  1.00  0.00     0.030 H 
ATOM     65  C   UNL     1     -50.248  26.734  26.076  1.00  0.00     0.048 C 
ATOM     66  H   UNL     1     -48.704  25.321  26.698  1.00  0.00     0.029 H 
ATOM     67  H   UNL     1     -49.089  25.304  24.964  1.00  0.00     0.029 H 
ATOM     68  H   UNL     1     -51.149  26.155  25.852  1.00  0.00     0.057 H 
ATOM     69  H   UNL     1     -50.313  27.094  27.109  1.00  0.00     0.057 H 
ENDBRANCH  50  58
BRANCH  54  70
ATOM     70  N   UNL     1     -46.638  28.263  22.329  1.00  0.00    -0.383 N 
ATOM     71  H   UNL     1     -45.768  27.760  22.506  1.00  0.00     0.158 HD
ATOM     72  H   UNL     1     -47.479  27.799  22.648  1.00  0.00     0.158 HD
ENDBRANCH  54  70
ENDBRANCH  43  47
ENDBRANCH  35  38
ENDBRANCH  34  35
ENDBRANCH   7  34
TORSDOF 13
ENDMDL
MODEL 7
REMARK VINA RESULT:      -8.1      1.868      2.416
REMARK SMILES CCc1cc(NCCOC)c2ncc(OCc3cncc(-n4cc([C@H]5CCCO5)c5c(N)ncnc54)c3)cc2n1
REMARK SMILES IDX 3 1 4 2 5 3 11 4 12 5 13 6 14 7 38 8 39 9 40 10 2 14 1 17
REMARK SMILES IDX 6 21 7 23 8 26 9 29 10 30 15 34 16 35 17 38 18 39 37 40
REMARK SMILES IDX 19 41 21 43 20 45 22 47 23 48 36 49 24 50 30 52 35 53 31 54
REMARK SMILES IDX 34 55 33 56 25 58 26 59 29 60 27 62 28 65 32 70
REMARK H PARENT 4 11 13 12 38 13 2 15 2 16 1 18 1 19 1 20 6 22 7 24 7 25 8 27
REMARK H PARENT 8 28 10 31 10 32 10 33 16 36 16 37 18 42 37 44 20 46 23 51
REMARK H PARENT 34 57 25 61 26 63 26 64 27 66 27 67 28 68 28 69 32 71 32 72
REMARK Flexibility Score: inf
ROOT
ATOM      1  C   UNL     1     -46.454  30.434  23.112  1.00  0.00     0.043 A 
ATOM      2  C   UNL     1     -47.689  29.851  23.356  1.00  0.00    -0.015 A 
ATOM      3  C   UNL     1     -48.571  30.472  24.245  1.00  0.00     0.064 A 
ATOM      4  C   UNL     1     -48.216  31.695  24.837  1.00  0.00     0.112 A 
ATOM      5  N   UNL     1     -49.069  32.324  25.684  1.00  0.00    -0.249 NA
ATOM      6  C   UNL     1     -48.658  33.491  26.225  1.00  0.00     0.070 A 
ATOM      7  C   UNL     1     -47.426  34.077  25.979  1.00  0.00     0.140 A 
ATOM      8  C   UNL     1     -46.572  33.410  25.106  1.00  0.00     0.010 A 
ATOM      9  C   UNL     1     -46.941  32.206  24.519  1.00  0.00     0.095 A 
ATOM     10  N   UNL     1     -46.075  31.597  23.686  1.00  0.00    -0.251 NA
ATOM     11  H   UNL     1     -47.971  28.940  22.842  1.00  0.00     0.066 H 
ATOM     12  H   UNL     1     -49.374  33.965  26.891  1.00  0.00     0.088 H 
ATOM     13  H   UNL     1     -45.596  33.802  24.846  1.00  0.00     0.069 H 
ENDROOT
BRANCH   1  14
ATOM     14  C   UNL     1     -45.487  29.805  22.143  1.00  0.00    -0.013 C 
ATOM     15  H   UNL     1     -45.824  28.794  21.883  1.00  0.00     0.033 H 
ATOM     16  H   UNL     1     -44.512  29.693  22.631  1.00  0.00     0.033 H 
BRANCH  14  17
ATOM     17  C   UNL     1     -45.330  30.644  20.885  1.00  0.00    -0.060 C 
ATOM     18  H   UNL     1     -46.220  31.263  20.729  1.00  0.00     0.023 H 
ATOM     19  H   UNL     1     -45.197  30.011  20.001  1.00  0.00     0.023 H 
ATOM     20  H   UNL     1     -44.462  31.308  20.955  1.00  0.00     0.023 H 
ENDBRANCH  14  17
ENDBRANCH   1  14
BRANCH   3  21
ATOM     21  N   UNL     1     -49.870  29.936  24.484  1.00  0.00    -0.381 N 
ATOM     22  H   UNL     1     -49.812  28.927  24.279  1.00  0.00     0.160 HD
BRANCH  21  23
ATOM     23  C   UNL     1     -50.957  30.538  23.701  1.00  0.00     0.038 C 
ATOM     24  H   UNL     1     -51.234  31.509  24.132  1.00  0.00     0.051 H 
ATOM     25  H   UNL     1     -51.832  29.882  23.702  1.00  0.00     0.051 H 
BRANCH  23  26
ATOM     26  C   UNL     1     -50.496  30.740  22.251  1.00  0.00     0.063 C 
ATOM     27  H   UNL     1     -49.465  30.390  22.128  1.00  0.00     0.059 H 
ATOM     28  H   UNL     1     -51.151  30.174  21.579  1.00  0.00     0.059 H 
BRANCH  26  29
ATOM     29  O   UNL     1     -50.579  32.129  21.916  1.00  0.00    -0.383 OA
BRANCH  29  30
ATOM     30  C   UNL     1     -51.928  32.563  21.810  1.00  0.00     0.036 C 
ATOM     31  H   UNL     1     -51.987  33.652  21.891  1.00  0.00     0.053 H 
ATOM     32  H   UNL     1     -52.310  32.263  20.830  1.00  0.00     0.053 H 
ATOM     33  H   UNL     1     -52.543  32.092  22.584  1.00  0.00     0.053 H 
ENDBRANCH  29  30
ENDBRANCH  26  29
ENDBRANCH  23  26
ENDBRANCH  21  23
ENDBRANCH   3  21
BRANCH   7  34
ATOM     34  O   UNL     1     -47.190  35.257  26.619  1.00  0.00    -0.487 OA
BRANCH  34  35
ATOM     35  C   UNL     1     -47.387  35.325  28.034  1.00  0.00     0.115 C 
ATOM     36  H   UNL     1     -48.440  35.590  28.190  1.00  0.00     0.076 H 
ATOM     37  H   UNL     1     -47.255  34.338  28.496  1.00  0.00     0.076 H 
BRANCH  35  38
ATOM     38  C   UNL     1     -46.552  36.390  28.697  1.00  0.00     0.010 A 
ATOM     39  C   UNL     1     -46.243  36.300  30.047  1.00  0.00     0.034 A 
ATOM     40  C   UNL     1     -46.106  37.524  28.003  1.00  0.00    -0.028 A 
ATOM     41  N   UNL     1     -45.520  37.222  30.715  1.00  0.00    -0.262 NA
ATOM     42  H   UNL     1     -46.571  35.460  30.652  1.00  0.00     0.084 H 
ATOM     43  C   UNL     1     -45.350  38.504  28.655  1.00  0.00     0.066 A 
ATOM     44  H   UNL     1     -46.344  37.595  26.946  1.00  0.00     0.065 H 
ATOM     45  C   UNL     1     -45.090  38.295  30.007  1.00  0.00     0.051 A 
ATOM     46  H   UNL     1     -44.531  38.995  30.618  1.00  0.00     0.086 H 
BRANCH  43  47
ATOM     47  N   UNL     1     -44.859  39.670  27.982  1.00  0.00    -0.299 N 
ATOM     48  C   UNL     1     -45.412  40.219  26.833  1.00  0.00     0.018 A 
ATOM     49  C   UNL     1     -43.761  40.459  28.324  1.00  0.00     0.150 A 
ATOM     50  C   UNL     1     -44.721  41.358  26.458  1.00  0.00     0.012 A 
ATOM     51  H   UNL     1     -46.285  39.781  26.371  1.00  0.00     0.083 H 
ATOM     52  C   UNL     1     -43.658  41.501  27.404  1.00  0.00     0.067 A 
ATOM     53  N   UNL     1     -42.910  40.253  29.350  1.00  0.00    -0.218 NA
ATOM     54  C   UNL     1     -42.597  42.406  27.586  1.00  0.00     0.136 A 
ATOM     55  C   UNL     1     -41.944  41.178  29.420  1.00  0.00     0.120 A 
ATOM     56  N   UNL     1     -41.747  42.230  28.612  1.00  0.00    -0.219 NA
ATOM     57  H   UNL     1     -41.232  41.064  30.231  1.00  0.00     0.106 H 
BRANCH  50  58
ATOM     58  C   UNL     1     -44.985  42.251  25.282  1.00  0.00     0.085 C 
ATOM     59  C   UNL     1     -45.439  43.666  25.618  1.00  0.00    -0.020 C 
ATOM     60  O   UNL     1     -43.805  42.408  24.455  1.00  0.00    -0.373 OA
ATOM     61  H   UNL     1     -45.743  41.771  24.647  1.00  0.00     0.066 H 
ATOM     62  C   UNL     1     -45.021  44.433  24.389  1.00  0.00    -0.027 C 
ATOM     63  H   UNL     1     -46.511  43.731  25.825  1.00  0.00     0.030 H 
ATOM     64  H   UNL     1     -44.901  44.067  26.487  1.00  0.00     0.030 H 
ATOM     65  C   UNL     1     -43.695  43.784  24.069  1.00  0.00     0.048 C 
ATOM     66  H   UNL     1     -44.943  45.511  24.547  1.00  0.00     0.029 H 
ATOM     67  H   UNL     1     -45.735  44.251  23.577  1.00  0.00     0.029 H 
ATOM     68  H   UNL     1     -43.440  43.849  23.007  1.00  0.00     0.057 H 
ATOM     69  H   UNL     1     -42.881  44.231  24.651  1.00  0.00     0.057 H 
ENDBRANCH  50  58
BRANCH  54  70
ATOM     70  N   UNL     1     -42.373  43.504  26.764  1.00  0.00    -0.383 N 
ATOM     71  H   UNL     1     -42.029  43.232  25.843  1.00  0.00     0.158 HD
ATOM     72  H   UNL     1     -43.185  44.109  26.763  1.00  0.00     0.158 HD
ENDBRANCH  54  70
ENDBRANCH  43  47
ENDBRANCH  35  38
ENDBRANCH  34  35
ENDBRANCH   7  34
TORSDOF 13
ENDMDL
