MODEL 1
REMARK VINA RESULT:      -9.8      0.000      0.000
REMARK SMILES CNc1nc2cc(CC[C@H]3O[C@@H](n4cc(-n5cccn5)c5c(N)ncnc54)[C@@H](F)[C@@H]3O)ccc2s1
REMARK SMILES IDX 8 1 7 4 3 5 4 6 35 7 5 8 34 9 6 10 33 11 32 13 2 16 1 18
REMARK SMILES IDX 9 22 10 25 11 26 30 27 12 29 28 30 29 33 31 35 13 37 14 38
REMARK SMILES IDX 27 39 15 40 21 42 26 43 22 44 25 45 24 46 16 48 17 49 20 50
REMARK SMILES IDX 18 51 19 53 23 56
REMARK H PARENT 8 2 8 3 6 12 33 14 32 15 2 17 1 19 1 20 1 21 9 23 9 24 10 28
REMARK H PARENT 30 31 12 32 28 34 31 36 14 41 25 47 17 52 18 54 19 55 23 57
REMARK H PARENT 23 58
REMARK Flexibility Score: inf
ROOT
ATOM      1  C   UNL     1     -46.051  34.828  26.308  1.00  0.00    -0.025 C 
ATOM      2  H   UNL     1     -45.633  34.552  27.284  1.00  0.00     0.032 H 
ATOM      3  H   UNL     1     -45.196  34.906  25.624  1.00  0.00     0.032 H 
ENDROOT
BRANCH   1   4
ATOM      4  C   UNL     1     -46.966  33.731  25.820  1.00  0.00    -0.046 A 
ATOM      5  C   UNL     1     -48.012  29.908  23.407  1.00  0.00     0.183 A 
ATOM      6  N   UNL     1     -46.988  30.702  23.615  1.00  0.00    -0.220 NA
ATOM      7  S   UNL     1     -49.448  30.330  24.254  1.00  0.00    -0.097 S 
ATOM      8  C   UNL     1     -47.337  31.719  24.487  1.00  0.00     0.084 A 
ATOM      9  C   UNL     1     -48.651  31.684  24.951  1.00  0.00     0.056 A 
ATOM     10  C   UNL     1     -46.488  32.754  24.931  1.00  0.00    -0.032 A 
ATOM     11  C   UNL     1     -49.149  32.645  25.845  1.00  0.00    -0.042 A 
ATOM     12  H   UNL     1     -45.464  32.777  24.571  1.00  0.00     0.065 H 
ATOM     13  C   UNL     1     -48.288  33.662  26.270  1.00  0.00    -0.057 A 
ATOM     14  H   UNL     1     -50.175  32.602  26.199  1.00  0.00     0.064 H 
ATOM     15  H   UNL     1     -48.665  34.410  26.968  1.00  0.00     0.063 H 
BRANCH   5  16
ATOM     16  N   UNL     1     -48.000  28.819  22.604  1.00  0.00    -0.365 N 
ATOM     17  H   UNL     1     -47.136  28.638  22.105  1.00  0.00     0.162 HD
BRANCH  16  18
ATOM     18  C   UNL     1     -49.210  28.472  21.894  1.00  0.00     0.006 C 
ATOM     19  H   UNL     1     -50.023  29.162  22.144  1.00  0.00     0.045 H 
ATOM     20  H   UNL     1     -49.526  27.448  22.116  1.00  0.00     0.045 H 
ATOM     21  H   UNL     1     -49.032  28.537  20.817  1.00  0.00     0.045 H 
ENDBRANCH  16  18
ENDBRANCH   5  16
ENDBRANCH   1   4
BRANCH   1  22
ATOM     22  C   UNL     1     -46.787  36.167  26.410  1.00  0.00    -0.020 C 
ATOM     23  H   UNL     1     -47.828  36.050  26.083  1.00  0.00     0.030 H 
ATOM     24  H   UNL     1     -46.315  36.883  25.727  1.00  0.00     0.030 H 
BRANCH  22  25
ATOM     25  C   UNL     1     -46.759  36.725  27.833  1.00  0.00     0.090 C 
ATOM     26  O   UNL     1     -45.448  37.219  28.157  1.00  0.00    -0.349 OA
ATOM     27  C   UNL     1     -47.722  37.892  28.026  1.00  0.00     0.116 C 
ATOM     28  H   UNL     1     -46.994  35.918  28.540  1.00  0.00     0.063 H 
ATOM     29  C   UNL     1     -45.600  38.425  28.945  1.00  0.00     0.169 C 
ATOM     30  C   UNL     1     -47.091  38.614  29.200  1.00  0.00     0.173 C 
ATOM     31  H   UNL     1     -47.742  38.552  27.151  1.00  0.00     0.066 H 
ATOM     32  H   UNL     1     -45.052  38.272  29.882  1.00  0.00     0.088 H 
ATOM     33  F   UNL     1     -47.479  39.909  29.227  1.00  0.00    -0.239 F 
ATOM     34  H   UNL     1     -47.390  38.153  30.148  1.00  0.00     0.074 H 
BRANCH  27  35
ATOM     35  O   UNL     1     -49.055  37.451  28.261  1.00  0.00    -0.387 OA
ATOM     36  H   UNL     1     -49.044  36.628  28.779  1.00  0.00     0.211 HD
ENDBRANCH  27  35
BRANCH  29  37
ATOM     37  N   UNL     1     -44.965  39.535  28.247  1.00  0.00    -0.301 N 
ATOM     38  C   UNL     1     -45.394  40.143  27.099  1.00  0.00     0.035 A 
ATOM     39  C   UNL     1     -43.802  40.132  28.667  1.00  0.00     0.149 A 
ATOM     40  C   UNL     1     -44.535  41.194  26.818  1.00  0.00     0.096 A 
ATOM     41  H   UNL     1     -46.296  39.826  26.590  1.00  0.00     0.084 H 
ATOM     42  C   UNL     1     -43.466  41.143  27.767  1.00  0.00     0.087 A 
ATOM     43  N   UNL     1     -43.115  39.761  29.760  1.00  0.00    -0.218 NA
ATOM     44  C   UNL     1     -42.228  41.769  28.004  1.00  0.00     0.138 A 
ATOM     45  C   UNL     1     -42.001  40.487  29.918  1.00  0.00     0.120 A 
ATOM     46  N   UNL     1     -41.521  41.441  29.103  1.00  0.00    -0.219 NA
ATOM     47  H   UNL     1     -41.405  40.269  30.798  1.00  0.00     0.106 H 
BRANCH  40  48
ATOM     48  N   UNL     1     -44.770  42.112  25.751  1.00  0.00    -0.239 N 
ATOM     49  C   UNL     1     -45.848  42.952  25.571  1.00  0.00     0.031 A 
ATOM     50  N   UNL     1     -43.915  42.204  24.691  1.00  0.00    -0.176 NA
ATOM     51  C   UNL     1     -45.637  43.659  24.412  1.00  0.00    -0.024 A 
ATOM     52  H   UNL     1     -46.689  42.946  26.245  1.00  0.00     0.084 H 
ATOM     53  C   UNL     1     -44.431  43.154  23.913  1.00  0.00     0.049 A 
ATOM     54  H   UNL     1     -46.286  44.404  23.973  1.00  0.00     0.066 H 
ATOM     55  H   UNL     1     -43.912  43.424  23.003  1.00  0.00     0.086 H 
ENDBRANCH  40  48
BRANCH  44  56
ATOM     56  N   UNL     1     -41.601  42.662  27.142  1.00  0.00    -0.383 N 
ATOM     57  H   UNL     1     -41.957  42.614  26.194  1.00  0.00     0.158 HD
ATOM     58  H   UNL     1     -40.597  42.525  27.211  1.00  0.00     0.158 HD
ENDBRANCH  44  56
ENDBRANCH  29  37
ENDBRANCH  22  25
ENDBRANCH   1  22
TORSDOF 9
ENDMDL
MODEL 2
REMARK VINA RESULT:      -9.3      2.209      3.245
REMARK SMILES CNc1nc2cc(CC[C@H]3O[C@@H](n4cc(-n5cccn5)c5c(N)ncnc54)[C@@H](F)[C@@H]3O)ccc2s1
REMARK SMILES IDX 8 1 7 4 3 5 4 6 35 7 5 8 34 9 6 10 33 11 32 13 2 16 1 18
REMARK SMILES IDX 9 22 10 25 11 26 30 27 12 29 28 30 29 33 31 35 13 37 14 38
REMARK SMILES IDX 27 39 15 40 21 42 26 43 22 44 25 45 24 46 16 48 17 49 20 50
REMARK SMILES IDX 18 51 19 53 23 56
REMARK H PARENT 8 2 8 3 6 12 33 14 32 15 2 17 1 19 1 20 1 21 9 23 9 24 10 28
REMARK H PARENT 30 31 12 32 28 34 31 36 14 41 25 47 17 52 18 54 19 55 23 57
REMARK H PARENT 23 58
REMARK Flexibility Score: inf
ROOT
ATOM      1  C   UNL     1     -47.839  35.168  26.593  1.00  0.00    -0.025 C 
ATOM      2  H   UNL     1     -47.241  35.967  26.139  1.00  0.00     0.032 H 
ATOM      3  H   UNL     1     -48.888  35.463  26.464  1.00  0.00     0.032 H 
ENDROOT
BRANCH   1   4
ATOM      4  C   UNL     1     -47.603  33.875  25.851  1.00  0.00    -0.046 A 
ATOM      5  C   UNL     1     -48.740  29.633  24.354  1.00  0.00     0.183 A 
ATOM      6  N   UNL     1     -49.245  30.593  25.091  1.00  0.00    -0.220 NA
ATOM      7  S   UNL     1     -47.188  29.959  23.688  1.00  0.00    -0.097 S 
ATOM      8  C   UNL     1     -48.366  31.661  25.156  1.00  0.00     0.084 A 
ATOM      9  C   UNL     1     -47.177  31.502  24.446  1.00  0.00     0.056 A 
ATOM     10  C   UNL     1     -48.578  32.864  25.863  1.00  0.00    -0.032 A 
ATOM     11  C   UNL     1     -46.192  32.501  24.413  1.00  0.00    -0.042 A 
ATOM     12  H   UNL     1     -49.506  32.986  26.413  1.00  0.00     0.065 H 
ATOM     13  C   UNL     1     -46.425  33.684  25.123  1.00  0.00    -0.057 A 
ATOM     14  H   UNL     1     -45.273  32.362  23.852  1.00  0.00     0.064 H 
ATOM     15  H   UNL     1     -45.667  34.467  25.099  1.00  0.00     0.063 H 
BRANCH   5  16
ATOM     16  N   UNL     1     -49.349  28.452  24.094  1.00  0.00    -0.365 N 
ATOM     17  H   UNL     1     -48.853  27.816  23.481  1.00  0.00     0.162 HD
BRANCH  16  18
ATOM     18  C   UNL     1     -50.790  28.432  23.975  1.00  0.00     0.006 C 
ATOM     19  H   UNL     1     -51.249  29.171  24.639  1.00  0.00     0.045 H 
ATOM     20  H   UNL     1     -51.198  27.442  24.202  1.00  0.00     0.045 H 
ATOM     21  H   UNL     1     -51.074  28.679  22.947  1.00  0.00     0.045 H 
ENDBRANCH  16  18
ENDBRANCH   5  16
ENDBRANCH   1   4
BRANCH   1  22
ATOM     22  C   UNL     1     -47.493  35.032  28.079  1.00  0.00    -0.020 C 
ATOM     23  H   UNL     1     -47.497  33.974  28.370  1.00  0.00     0.030 H 
ATOM     24  H   UNL     1     -48.272  35.529  28.670  1.00  0.00     0.030 H 
BRANCH  22  25
ATOM     25  C   UNL     1     -46.133  35.647  28.406  1.00  0.00     0.090 C 
ATOM     26  O   UNL     1     -45.700  36.512  27.342  1.00  0.00    -0.349 OA
ATOM     27  C   UNL     1     -46.162  36.499  29.671  1.00  0.00     0.116 C 
ATOM     28  H   UNL     1     -45.391  34.845  28.505  1.00  0.00     0.063 H 
ATOM     29  C   UNL     1     -45.046  37.664  27.930  1.00  0.00     0.169 C 
ATOM     30  C   UNL     1     -44.990  37.431  29.436  1.00  0.00     0.173 C 
ATOM     31  H   UNL     1     -47.089  37.080  29.750  1.00  0.00     0.066 H 
ATOM     32  H   UNL     1     -44.041  37.722  27.497  1.00  0.00     0.088 H 
ATOM     33  F   UNL     1     -45.125  38.561  30.166  1.00  0.00    -0.239 F 
ATOM     34  H   UNL     1     -44.047  36.953  29.724  1.00  0.00     0.074 H 
BRANCH  27  35
ATOM     35  O   UNL     1     -46.050  35.707  30.849  1.00  0.00    -0.387 OA
ATOM     36  H   UNL     1     -45.897  34.778  30.609  1.00  0.00     0.211 HD
ENDBRANCH  27  35
BRANCH  29  37
ATOM     37  N   UNL     1     -45.760  38.870  27.535  1.00  0.00    -0.301 N 
ATOM     38  C   UNL     1     -47.115  39.061  27.516  1.00  0.00     0.035 A 
ATOM     39  C   UNL     1     -45.137  40.016  27.108  1.00  0.00     0.149 A 
ATOM     40  C   UNL     1     -47.363  40.372  27.142  1.00  0.00     0.096 A 
ATOM     41  H   UNL     1     -47.803  38.279  27.812  1.00  0.00     0.084 H 
ATOM     42  C   UNL     1     -46.110  40.968  26.797  1.00  0.00     0.087 A 
ATOM     43  N   UNL     1     -43.805  40.157  26.999  1.00  0.00    -0.218 NA
ATOM     44  C   UNL     1     -45.622  42.160  26.231  1.00  0.00     0.138 A 
ATOM     45  C   UNL     1     -43.469  41.363  26.526  1.00  0.00     0.120 A 
ATOM     46  N   UNL     1     -44.291  42.347  26.127  1.00  0.00    -0.219 NA
ATOM     47  H   UNL     1     -42.406  41.566  26.437  1.00  0.00     0.106 H 
BRANCH  40  48
ATOM     48  N   UNL     1     -48.674  40.934  27.141  1.00  0.00    -0.239 N 
ATOM     49  C   UNL     1     -49.743  40.607  27.949  1.00  0.00     0.031 A 
ATOM     50  N   UNL     1     -49.045  41.875  26.225  1.00  0.00    -0.176 NA
ATOM     51  C   UNL     1     -50.796  41.416  27.598  1.00  0.00    -0.024 A 
ATOM     52  H   UNL     1     -49.685  39.803  28.666  1.00  0.00     0.084 H 
ATOM     53  C   UNL     1     -50.307  42.175  26.529  1.00  0.00     0.049 A 
ATOM     54  H   UNL     1     -51.787  41.424  28.028  1.00  0.00     0.066 H 
ATOM     55  H   UNL     1     -50.821  42.925  25.943  1.00  0.00     0.086 H 
ENDBRANCH  40  48
BRANCH  44  56
ATOM     56  N   UNL     1     -46.406  43.163  25.671  1.00  0.00    -0.383 N 
ATOM     57  H   UNL     1     -47.388  43.075  25.906  1.00  0.00     0.158 HD
ATOM     58  H   UNL     1     -46.223  43.195  24.673  1.00  0.00     0.158 HD
ENDBRANCH  44  56
ENDBRANCH  29  37
ENDBRANCH  22  25
ENDBRANCH   1  22
TORSDOF 9
ENDMDL
MODEL 3
REMARK VINA RESULT:      -9.1      2.428      4.200
REMARK SMILES CNc1nc2cc(CC[C@H]3O[C@@H](n4cc(-n5cccn5)c5c(N)ncnc54)[C@@H](F)[C@@H]3O)ccc2s1
REMARK SMILES IDX 8 1 7 4 3 5 4 6 35 7 5 8 34 9 6 10 33 11 32 13 2 16 1 18
REMARK SMILES IDX 9 22 10 25 11 26 30 27 12 29 28 30 29 33 31 35 13 37 14 38
REMARK SMILES IDX 27 39 15 40 21 42 26 43 22 44 25 45 24 46 16 48 17 49 20 50
REMARK SMILES IDX 18 51 19 53 23 56
REMARK H PARENT 8 2 8 3 6 12 33 14 32 15 2 17 1 19 1 20 1 21 9 23 9 24 10 28
REMARK H PARENT 30 31 12 32 28 34 31 36 14 41 25 47 17 52 18 54 19 55 23 57
REMARK H PARENT 23 58
REMARK Flexibility Score: inf
ROOT
ATOM      1  C   UNL     1     -47.295  37.947  27.640  1.00  0.00    -0.025 C 
ATOM      2  H   UNL     1     -47.020  38.599  26.803  1.00  0.00     0.032 H 
ATOM      3  H   UNL     1     -48.205  38.380  28.074  1.00  0.00     0.032 H 
ENDROOT
BRANCH   1   4
ATOM      4  C   UNL     1     -47.613  36.565  27.123  1.00  0.00    -0.046 A 
ATOM      5  C   UNL     1     -46.630  32.549  25.018  1.00  0.00     0.183 A 
ATOM      6  N   UNL     1     -46.042  33.682  25.317  1.00  0.00    -0.220 NA
ATOM      7  S   UNL     1     -48.266  32.414  25.533  1.00  0.00    -0.097 S 
ATOM      8  C   UNL     1     -46.920  34.518  25.987  1.00  0.00     0.084 A 
ATOM      9  C   UNL     1     -48.194  33.996  26.203  1.00  0.00     0.056 A 
ATOM     10  C   UNL     1     -46.629  35.816  26.456  1.00  0.00    -0.032 A 
ATOM     11  C   UNL     1     -49.191  34.723  26.872  1.00  0.00    -0.042 A 
ATOM     12  H   UNL     1     -45.635  36.218  26.290  1.00  0.00     0.065 H 
ATOM     13  C   UNL     1     -48.879  36.009  27.328  1.00  0.00    -0.057 A 
ATOM     14  H   UNL     1     -50.178  34.301  27.035  1.00  0.00     0.064 H 
ATOM     15  H   UNL     1     -49.646  36.578  27.854  1.00  0.00     0.063 H 
BRANCH   5  16
ATOM     16  N   UNL     1     -46.045  31.519  24.362  1.00  0.00    -0.365 N 
ATOM     17  H   UNL     1     -45.149  31.714  23.929  1.00  0.00     0.162 HD
BRANCH  16  18
ATOM     18  C   UNL     1     -46.889  30.587  23.650  1.00  0.00     0.006 C 
ATOM     19  H   UNL     1     -47.922  30.946  23.606  1.00  0.00     0.045 H 
ATOM     20  H   UNL     1     -46.872  29.595  24.114  1.00  0.00     0.045 H 
ATOM     21  H   UNL     1     -46.525  30.477  22.624  1.00  0.00     0.045 H 
ENDBRANCH  16  18
ENDBRANCH   5  16
ENDBRANCH   1   4
BRANCH   1  22
ATOM     22  C   UNL     1     -46.166  37.912  28.674  1.00  0.00    -0.020 C 
ATOM     23  H   UNL     1     -45.974  36.877  28.985  1.00  0.00     0.030 H 
ATOM     24  H   UNL     1     -46.487  38.461  29.567  1.00  0.00     0.030 H 
BRANCH  22  25
ATOM     25  C   UNL     1     -44.878  38.529  28.130  1.00  0.00     0.090 C 
ATOM     26  O   UNL     1     -45.074  39.012  26.791  1.00  0.00    -0.349 OA
ATOM     27  C   UNL     1     -44.403  39.721  28.956  1.00  0.00     0.116 C 
ATOM     28  H   UNL     1     -44.097  37.757  28.094  1.00  0.00     0.063 H 
ATOM     29  C   UNL     1     -44.341  40.253  26.643  1.00  0.00     0.169 C 
ATOM     30  C   UNL     1     -43.572  40.480  27.940  1.00  0.00     0.173 C 
ATOM     31  H   UNL     1     -45.241  40.344  29.291  1.00  0.00     0.066 H 
ATOM     32  H   UNL     1     -43.660  40.129  25.793  1.00  0.00     0.088 H 
ATOM     33  F   UNL     1     -43.466  41.783  28.290  1.00  0.00    -0.239 F 
ATOM     34  H   UNL     1     -42.560  40.065  27.875  1.00  0.00     0.074 H 
BRANCH  27  35
ATOM     35  O   UNL     1     -43.681  39.314  30.114  1.00  0.00    -0.387 OA
ATOM     36  H   UNL     1     -44.201  39.508  30.912  1.00  0.00     0.211 HD
ENDBRANCH  27  35
BRANCH  29  37
ATOM     37  N   UNL     1     -45.273  41.320  26.303  1.00  0.00    -0.301 N 
ATOM     38  C   UNL     1     -46.610  41.370  26.585  1.00  0.00     0.035 A 
ATOM     39  C   UNL     1     -44.911  42.456  25.623  1.00  0.00     0.149 A 
ATOM     40  C   UNL     1     -47.101  42.589  26.144  1.00  0.00     0.096 A 
ATOM     41  H   UNL     1     -47.110  40.570  27.116  1.00  0.00     0.084 H 
ATOM     42  C   UNL     1     -46.042  43.256  25.452  1.00  0.00     0.087 A 
ATOM     43  N   UNL     1     -43.666  42.713  25.188  1.00  0.00    -0.218 NA
ATOM     44  C   UNL     1     -45.848  44.406  24.664  1.00  0.00     0.138 A 
ATOM     45  C   UNL     1     -43.600  43.874  24.525  1.00  0.00     0.120 A 
ATOM     46  N   UNL     1     -44.609  44.709  24.229  1.00  0.00    -0.219 NA
ATOM     47  H   UNL     1     -42.618  44.168  24.166  1.00  0.00     0.106 H 
BRANCH  40  48
ATOM     48  N   UNL     1     -48.440  43.012  26.394  1.00  0.00    -0.239 N 
ATOM     49  C   UNL     1     -49.129  43.002  27.588  1.00  0.00     0.031 A 
ATOM     50  N   UNL     1     -49.252  43.438  25.383  1.00  0.00    -0.176 NA
ATOM     51  C   UNL     1     -50.383  43.512  27.352  1.00  0.00    -0.024 A 
ATOM     52  H   UNL     1     -48.696  42.594  28.488  1.00  0.00     0.084 H 
ATOM     53  C   UNL     1     -50.401  43.761  25.975  1.00  0.00     0.049 A 
ATOM     54  H   UNL     1     -51.181  43.644  28.068  1.00  0.00     0.066 H 
ATOM     55  H   UNL     1     -51.210  44.149  25.370  1.00  0.00     0.086 H 
ENDBRANCH  40  48
BRANCH  44  56
ATOM     56  N   UNL     1     -46.858  45.243  24.203  1.00  0.00    -0.383 N 
ATOM     57  H   UNL     1     -47.488  45.545  24.937  1.00  0.00     0.158 HD
ATOM     58  H   UNL     1     -47.324  44.787  23.424  1.00  0.00     0.158 HD
ENDBRANCH  44  56
ENDBRANCH  29  37
ENDBRANCH  22  25
ENDBRANCH   1  22
TORSDOF 9
ENDMDL
MODEL 4
REMARK VINA RESULT:      -8.3      1.733      2.289
REMARK SMILES CNc1nc2cc(CC[C@H]3O[C@@H](n4cc(-n5cccn5)c5c(N)ncnc54)[C@@H](F)[C@@H]3O)ccc2s1
REMARK SMILES IDX 8 1 7 4 3 5 4 6 35 7 5 8 34 9 6 10 33 11 32 13 2 16 1 18
REMARK SMILES IDX 9 22 10 25 11 26 30 27 12 29 28 30 29 33 31 35 13 37 14 38
REMARK SMILES IDX 27 39 15 40 21 42 26 43 22 44 25 45 24 46 16 48 17 49 20 50
REMARK SMILES IDX 18 51 19 53 23 56
REMARK H PARENT 8 2 8 3 6 12 33 14 32 15 2 17 1 19 1 20 1 21 9 23 9 24 10 28
REMARK H PARENT 30 31 12 32 28 34 31 36 14 41 25 47 17 52 18 54 19 55 23 57
REMARK H PARENT 23 58
REMARK Flexibility Score: inf
ROOT
ATOM      1  C   UNL     1     -46.060  33.471  25.791  1.00  0.00    -0.025 C 
ATOM      2  H   UNL     1     -45.907  33.105  26.814  1.00  0.00     0.032 H 
ATOM      3  H   UNL     1     -45.061  33.703  25.401  1.00  0.00     0.032 H 
ENDROOT
BRANCH   1   4
ATOM      4  C   UNL     1     -46.670  32.378  24.948  1.00  0.00    -0.046 A 
ATOM      5  C   UNL     1     -50.030  29.435  23.691  1.00  0.00     0.183 A 
ATOM      6  N   UNL     1     -49.804  30.354  24.600  1.00  0.00    -0.220 NA
ATOM      7  S   UNL     1     -48.749  29.182  22.572  1.00  0.00    -0.097 S 
ATOM      8  C   UNL     1     -48.543  30.899  24.429  1.00  0.00     0.084 A 
ATOM      9  C   UNL     1     -47.809  30.385  23.362  1.00  0.00     0.056 A 
ATOM     10  C   UNL     1     -47.965  31.909  25.227  1.00  0.00    -0.032 A 
ATOM     11  C   UNL     1     -46.517  30.842  23.060  1.00  0.00    -0.042 A 
ATOM     12  H   UNL     1     -48.541  32.311  26.055  1.00  0.00     0.065 H 
ATOM     13  C   UNL     1     -45.965  31.844  23.866  1.00  0.00    -0.057 A 
ATOM     14  H   UNL     1     -45.959  30.433  22.223  1.00  0.00     0.064 H 
ATOM     15  H   UNL     1     -44.963  32.209  23.635  1.00  0.00     0.063 H 
BRANCH   5  16
ATOM     16  N   UNL     1     -51.170  28.713  23.585  1.00  0.00    -0.365 N 
ATOM     17  H   UNL     1     -51.104  27.842  23.070  1.00  0.00     0.162 HD
BRANCH  16  18
ATOM     18  C   UNL     1     -52.424  29.419  23.450  1.00  0.00     0.006 C 
ATOM     19  H   UNL     1     -52.712  29.512  22.398  1.00  0.00     0.045 H 
ATOM     20  H   UNL     1     -52.373  30.417  23.899  1.00  0.00     0.045 H 
ATOM     21  H   UNL     1     -53.211  28.864  23.969  1.00  0.00     0.045 H 
ENDBRANCH  16  18
ENDBRANCH   5  16
ENDBRANCH   1   4
BRANCH   1  22
ATOM     22  C   UNL     1     -46.940  34.724  25.807  1.00  0.00    -0.020 C 
ATOM     23  H   UNL     1     -47.825  34.569  25.176  1.00  0.00     0.030 H 
ATOM     24  H   UNL     1     -46.377  35.557  25.370  1.00  0.00     0.030 H 
BRANCH  22  25
ATOM     25  C   UNL     1     -47.381  35.093  27.223  1.00  0.00     0.090 C 
ATOM     26  O   UNL     1     -46.279  35.633  27.971  1.00  0.00    -0.349 OA
ATOM     27  C   UNL     1     -48.478  36.153  27.240  1.00  0.00     0.116 C 
ATOM     28  H   UNL     1     -47.722  34.186  27.740  1.00  0.00     0.063 H 
ATOM     29  C   UNL     1     -46.778  36.713  28.799  1.00  0.00     0.169 C 
ATOM     30  C   UNL     1     -48.291  36.760  28.616  1.00  0.00     0.173 C 
ATOM     31  H   UNL     1     -48.316  36.919  26.471  1.00  0.00     0.066 H 
ATOM     32  H   UNL     1     -46.509  36.478  29.835  1.00  0.00     0.088 H 
ATOM     33  F   UNL     1     -48.806  38.010  28.661  1.00  0.00    -0.239 F 
ATOM     34  H   UNL     1     -48.798  36.159  29.379  1.00  0.00     0.074 H 
BRANCH  27  35
ATOM     35  O   UNL     1     -49.767  35.591  27.020  1.00  0.00    -0.387 OA
ATOM     36  H   UNL     1     -50.102  35.864  26.149  1.00  0.00     0.211 HD
ENDBRANCH  27  35
BRANCH  29  37
ATOM     37  N   UNL     1     -46.091  37.946  28.439  1.00  0.00    -0.301 N 
ATOM     38  C   UNL     1     -46.383  38.781  27.396  1.00  0.00     0.035 A 
ATOM     39  C   UNL     1     -45.013  38.444  29.129  1.00  0.00     0.149 A 
ATOM     40  C   UNL     1     -45.528  39.870  27.460  1.00  0.00     0.096 A 
ATOM     41  H   UNL     1     -47.200  38.576  26.715  1.00  0.00     0.084 H 
ATOM     42  C   UNL     1     -44.592  39.623  28.513  1.00  0.00     0.087 A 
ATOM     43  N   UNL     1     -44.465  37.853  30.204  1.00  0.00    -0.218 NA
ATOM     44  C   UNL     1     -43.417  40.188  29.041  1.00  0.00     0.138 A 
ATOM     45  C   UNL     1     -43.406  38.533  30.659  1.00  0.00     0.120 A 
ATOM     46  N   UNL     1     -42.851  39.638  30.134  1.00  0.00    -0.219 NA
ATOM     47  H   UNL     1     -42.924  38.135  31.547  1.00  0.00     0.106 H 
BRANCH  40  48
ATOM     48  N   UNL     1     -45.647  40.991  26.586  1.00  0.00    -0.239 N 
ATOM     49  C   UNL     1     -46.746  41.798  26.380  1.00  0.00     0.031 A 
ATOM     50  N   UNL     1     -44.628  41.358  25.756  1.00  0.00    -0.176 NA
ATOM     51  C   UNL     1     -46.394  42.756  25.460  1.00  0.00    -0.024 A 
ATOM     52  H   UNL     1     -47.691  41.601  26.860  1.00  0.00     0.084 H 
ATOM     53  C   UNL     1     -45.078  42.433  25.110  1.00  0.00     0.049 A 
ATOM     54  H   UNL     1     -47.018  43.548  25.070  1.00  0.00     0.066 H 
ATOM     55  H   UNL     1     -44.430  42.925  24.397  1.00  0.00     0.086 H 
ENDBRANCH  40  48
BRANCH  44  56
ATOM     56  N   UNL     1     -42.709  41.244  28.477  1.00  0.00    -0.383 N 
ATOM     57  H   UNL     1     -43.309  41.996  28.156  1.00  0.00     0.158 HD
ATOM     58  H   UNL     1     -42.095  40.873  27.759  1.00  0.00     0.158 HD
ENDBRANCH  44  56
ENDBRANCH  29  37
ENDBRANCH  22  25
ENDBRANCH   1  22
TORSDOF 9
ENDMDL
MODEL 5
REMARK VINA RESULT:      -8.2      2.962      4.712
REMARK SMILES CNc1nc2cc(CC[C@H]3O[C@@H](n4cc(-n5cccn5)c5c(N)ncnc54)[C@@H](F)[C@@H]3O)ccc2s1
REMARK SMILES IDX 8 1 7 4 3 5 4 6 35 7 5 8 34 9 6 10 33 11 32 13 2 16 1 18
REMARK SMILES IDX 9 22 10 25 11 26 30 27 12 29 28 30 29 33 31 35 13 37 14 38
REMARK SMILES IDX 27 39 15 40 21 42 26 43 22 44 25 45 24 46 16 48 17 49 20 50
REMARK SMILES IDX 18 51 19 53 23 56
REMARK H PARENT 8 2 8 3 6 12 33 14 32 15 2 17 1 19 1 20 1 21 9 23 9 24 10 28
REMARK H PARENT 30 31 12 32 28 34 31 36 14 41 25 47 17 52 18 54 19 55 23 57
REMARK H PARENT 23 58
REMARK Flexibility Score: inf
ROOT
ATOM      1  C   UNL     1     -46.972  34.397  27.443  1.00  0.00    -0.025 C 
ATOM      2  H   UNL     1     -47.340  34.019  28.405  1.00  0.00     0.032 H 
ATOM      3  H   UNL     1     -45.879  34.424  27.527  1.00  0.00     0.032 H 
ENDROOT
BRANCH   1   4
ATOM      4  C   UNL     1     -47.353  33.436  26.343  1.00  0.00    -0.046 A 
ATOM      5  C   UNL     1     -46.490  30.553  22.811  1.00  0.00     0.183 A 
ATOM      6  N   UNL     1     -45.835  31.335  23.636  1.00  0.00    -0.220 NA
ATOM      7  S   UNL     1     -48.194  30.512  23.037  1.00  0.00    -0.097 S 
ATOM      8  C   UNL     1     -46.714  31.959  24.506  1.00  0.00     0.084 A 
ATOM      9  C   UNL     1     -48.058  31.632  24.335  1.00  0.00     0.056 A 
ATOM     10  C   UNL     1     -46.361  32.870  25.524  1.00  0.00    -0.032 A 
ATOM     11  C   UNL     1     -49.065  32.179  25.145  1.00  0.00    -0.042 A 
ATOM     12  H   UNL     1     -45.314  33.120  25.658  1.00  0.00     0.065 H 
ATOM     13  C   UNL     1     -48.690  33.081  26.147  1.00  0.00    -0.057 A 
ATOM     14  H   UNL     1     -50.107  31.911  25.001  1.00  0.00     0.064 H 
ATOM     15  H   UNL     1     -49.466  33.507  26.784  1.00  0.00     0.063 H 
BRANCH   5  16
ATOM     16  N   UNL     1     -45.922  29.804  21.837  1.00  0.00    -0.365 N 
ATOM     17  H   UNL     1     -46.547  29.438  21.129  1.00  0.00     0.162 HD
BRANCH  16  18
ATOM     18  C   UNL     1     -44.811  28.947  22.187  1.00  0.00     0.006 C 
ATOM     19  H   UNL     1     -45.033  27.901  21.953  1.00  0.00     0.045 H 
ATOM     20  H   UNL     1     -44.557  29.032  23.249  1.00  0.00     0.045 H 
ATOM     21  H   UNL     1     -43.928  29.243  21.612  1.00  0.00     0.045 H 
ENDBRANCH  16  18
ENDBRANCH   5  16
ENDBRANCH   1   4
BRANCH   1  22
ATOM     22  C   UNL     1     -47.531  35.799  27.181  1.00  0.00    -0.020 C 
ATOM     23  H   UNL     1     -48.169  36.111  28.017  1.00  0.00     0.030 H 
ATOM     24  H   UNL     1     -48.166  35.764  26.288  1.00  0.00     0.030 H 
BRANCH  22  25
ATOM     25  C   UNL     1     -46.418  36.826  26.976  1.00  0.00     0.090 C 
ATOM     26  O   UNL     1     -46.891  37.936  26.197  1.00  0.00    -0.349 OA
ATOM     27  C   UNL     1     -45.904  37.406  28.290  1.00  0.00     0.116 C 
ATOM     28  H   UNL     1     -45.594  36.357  26.420  1.00  0.00     0.063 H 
ATOM     29  C   UNL     1     -46.304  39.149  26.730  1.00  0.00     0.169 C 
ATOM     30  C   UNL     1     -45.336  38.735  27.833  1.00  0.00     0.173 C 
ATOM     31  H   UNL     1     -46.717  37.576  29.006  1.00  0.00     0.066 H 
ATOM     32  H   UNL     1     -45.779  39.645  25.905  1.00  0.00     0.088 H 
ATOM     33  F   UNL     1     -45.279  39.609  28.863  1.00  0.00    -0.239 F 
ATOM     34  H   UNL     1     -44.321  38.610  27.439  1.00  0.00     0.074 H 
BRANCH  27  35
ATOM     35  O   UNL     1     -44.954  36.550  28.916  1.00  0.00    -0.387 OA
ATOM     36  H   UNL     1     -45.070  35.639  28.597  1.00  0.00     0.211 HD
ENDBRANCH  27  35
BRANCH  29  37
ATOM     37  N   UNL     1     -47.368  40.042  27.169  1.00  0.00    -0.301 N 
ATOM     38  C   UNL     1     -48.423  39.733  27.982  1.00  0.00     0.035 A 
ATOM     39  C   UNL     1     -47.452  41.361  26.800  1.00  0.00     0.149 A 
ATOM     40  C   UNL     1     -49.156  40.889  28.200  1.00  0.00     0.096 A 
ATOM     41  H   UNL     1     -48.556  38.738  28.389  1.00  0.00     0.084 H 
ATOM     42  C   UNL     1     -48.593  41.918  27.381  1.00  0.00     0.087 A 
ATOM     43  N   UNL     1     -46.574  41.979  25.992  1.00  0.00    -0.218 NA
ATOM     44  C   UNL     1     -48.877  43.241  26.996  1.00  0.00     0.138 A 
ATOM     45  C   UNL     1     -46.914  43.254  25.770  1.00  0.00     0.120 A 
ATOM     46  N   UNL     1     -48.008  43.901  26.206  1.00  0.00    -0.219 NA
ATOM     47  H   UNL     1     -46.236  43.832  25.149  1.00  0.00     0.106 H 
BRANCH  40  48
ATOM     48  N   UNL     1     -50.256  40.940  29.106  1.00  0.00    -0.239 N 
ATOM     49  C   UNL     1     -50.506  41.870  30.093  1.00  0.00     0.031 A 
ATOM     50  N   UNL     1     -51.205  39.959  29.129  1.00  0.00    -0.176 NA
ATOM     51  C   UNL     1     -51.687  41.524  30.705  1.00  0.00    -0.024 A 
ATOM     52  H   UNL     1     -49.811  42.665  30.310  1.00  0.00     0.084 H 
ATOM     53  C   UNL     1     -52.070  40.337  30.070  1.00  0.00     0.049 A 
ATOM     54  H   UNL     1     -52.176  42.036  31.521  1.00  0.00     0.066 H 
ATOM     55  H   UNL     1     -52.936  39.718  30.263  1.00  0.00     0.086 H 
ENDBRANCH  40  48
BRANCH  44  56
ATOM     56  N   UNL     1     -50.048  43.930  27.292  1.00  0.00    -0.383 N 
ATOM     57  H   UNL     1     -49.885  44.899  27.542  1.00  0.00     0.158 HD
ATOM     58  H   UNL     1     -50.562  43.405  27.993  1.00  0.00     0.158 HD
ENDBRANCH  44  56
ENDBRANCH  29  37
ENDBRANCH  22  25
ENDBRANCH   1  22
TORSDOF 9
ENDMDL
