MODEL 1
REMARK VINA RESULT:      -6.8      0.000      0.000
REMARK SMILES CNc1cc(N2CCC3(CC2)CN(c2ccc(CN4CCC(C)(C)CC4)cc2)CC(=O)N3C)ncn1
REMARK SMILES IDX 6 1 7 2 8 3 9 4 10 5 11 6 12 7 13 8 29 9 30 10 31 11 32 12
REMARK SMILES IDX 5 25 3 26 4 27 36 28 35 30 34 31 2 33 1 35 33 39 14 43 15 44
REMARK SMILES IDX 28 45 16 46 27 48 17 50 18 53 19 56 20 57 26 58 21 59 25 62
REMARK SMILES IDX 22 65 23 70 24 74
REMARK H PARENT 7 13 7 14 8 15 8 16 10 17 10 18 11 19 11 20 12 21 12 22 29 23
REMARK H PARENT 29 24 4 29 35 32 2 34 1 36 1 37 1 38 33 40 33 41 33 42 15 47
REMARK H PARENT 28 49 16 51 27 52 18 54 18 55 20 60 20 61 26 63 26 64 21 66
REMARK H PARENT 21 67 25 68 25 69 23 71 23 72 23 73 24 75 24 76 24 77
REMARK Flexibility Score: inf
ROOT
ATOM      1  N   UNL     1     -44.458  42.898  25.091  1.00  0.00    -0.356 N 
ATOM      2  C   UNL     1     -43.013  43.103  25.213  1.00  0.00     0.021 C 
ATOM      3  C   UNL     1     -42.404  41.901  25.936  1.00  0.00    -0.010 C 
ATOM      4  C   UNL     1     -43.190  41.498  27.222  1.00  0.00     0.063 C 
ATOM      5  C   UNL     1     -44.290  42.542  27.538  1.00  0.00    -0.010 C 
ATOM      6  C   UNL     1     -45.213  42.810  26.351  1.00  0.00     0.021 C 
ATOM      7  C   UNL     1     -43.839  40.107  26.911  1.00  0.00     0.042 C 
ATOM      8  N   UNL     1     -44.563  39.634  28.093  1.00  0.00    -0.360 N 
ATOM      9  C   UNL     1     -43.668  39.414  29.252  1.00  0.00     0.097 C 
ATOM     10  C   UNL     1     -42.645  40.540  29.490  1.00  0.00     0.242 C 
ATOM     11  O   UNL     1     -42.110  40.648  30.598  1.00  0.00    -0.273 OA
ATOM     12  N   UNL     1     -42.284  41.373  28.415  1.00  0.00    -0.337 N 
ATOM     13  H   UNL     1     -42.793  44.034  25.750  1.00  0.00     0.049 H 
ATOM     14  H   UNL     1     -42.528  43.165  24.231  1.00  0.00     0.049 H 
ATOM     15  H   UNL     1     -41.346  42.097  26.128  1.00  0.00     0.031 H 
ATOM     16  H   UNL     1     -42.392  41.060  25.227  1.00  0.00     0.031 H 
ATOM     17  H   UNL     1     -43.821  43.492  27.825  1.00  0.00     0.031 H 
ATOM     18  H   UNL     1     -44.891  42.248  28.408  1.00  0.00     0.031 H 
ATOM     19  H   UNL     1     -45.761  43.739  26.555  1.00  0.00     0.049 H 
ATOM     20  H   UNL     1     -45.954  42.004  26.274  1.00  0.00     0.049 H 
ATOM     21  H   UNL     1     -43.055  39.383  26.648  1.00  0.00     0.052 H 
ATOM     22  H   UNL     1     -44.511  40.195  26.050  1.00  0.00     0.052 H 
ATOM     23  H   UNL     1     -44.254  39.339  30.175  1.00  0.00     0.060 H 
ATOM     24  H   UNL     1     -43.097  38.487  29.119  1.00  0.00     0.060 H 
ENDROOT
BRANCH   1  25
ATOM     25  C   UNL     1     -45.083  43.678  24.098  1.00  0.00     0.134 A 
ATOM     26  C   UNL     1     -45.205  44.513  21.878  1.00  0.00     0.131 A 
ATOM     27  C   UNL     1     -44.565  43.722  22.813  1.00  0.00     0.023 A 
ATOM     28  N   UNL     1     -46.304  45.212  22.172  1.00  0.00    -0.219 NA
ATOM     29  H   UNL     1     -43.684  43.156  22.543  1.00  0.00     0.070 H 
ATOM     30  C   UNL     1     -46.728  45.124  23.436  1.00  0.00     0.120 A 
ATOM     31  N   UNL     1     -46.167  44.404  24.417  1.00  0.00    -0.219 NA
ATOM     32  H   UNL     1     -47.614  45.693  23.696  1.00  0.00     0.106 H 
BRANCH  26  33
ATOM     33  N   UNL     1     -44.768  44.606  20.554  1.00  0.00    -0.373 N 
ATOM     34  H   UNL     1     -45.542  44.230  20.006  1.00  0.00     0.161 HD
BRANCH  33  35
ATOM     35  C   UNL     1     -44.418  45.952  20.128  1.00  0.00     0.005 C 
ATOM     36  H   UNL     1     -45.250  46.649  20.275  1.00  0.00     0.045 H 
ATOM     37  H   UNL     1     -44.180  45.937  19.059  1.00  0.00     0.045 H 
ATOM     38  H   UNL     1     -43.533  46.325  20.652  1.00  0.00     0.045 H 
ENDBRANCH  33  35
ENDBRANCH  26  33
ENDBRANCH   1  25
BRANCH  12  39
ATOM     39  C   UNL     1     -41.441  42.505  28.793  1.00  0.00     0.010 C 
ATOM     40  H   UNL     1     -41.556  43.313  28.064  1.00  0.00     0.046 H 
ATOM     41  H   UNL     1     -41.697  42.897  29.777  1.00  0.00     0.046 H 
ATOM     42  H   UNL     1     -40.394  42.185  28.793  1.00  0.00     0.046 H 
ENDBRANCH  12  39
BRANCH   8  43
ATOM     43  C   UNL     1     -45.496  38.596  27.926  1.00  0.00     0.037 A 
ATOM     44  C   UNL     1     -45.412  37.459  28.746  1.00  0.00    -0.038 A 
ATOM     45  C   UNL     1     -46.535  38.630  26.986  1.00  0.00    -0.038 A 
ATOM     46  C   UNL     1     -46.317  36.399  28.628  1.00  0.00    -0.056 A 
ATOM     47  H   UNL     1     -44.645  37.399  29.514  1.00  0.00     0.064 H 
ATOM     48  C   UNL     1     -47.444  37.569  26.861  1.00  0.00    -0.056 A 
ATOM     49  H   UNL     1     -46.654  39.472  26.312  1.00  0.00     0.064 H 
ATOM     50  C   UNL     1     -47.348  36.445  27.685  1.00  0.00    -0.034 A 
ATOM     51  H   UNL     1     -46.221  35.539  29.288  1.00  0.00     0.063 H 
ATOM     52  H   UNL     1     -48.229  37.636  26.110  1.00  0.00     0.063 H 
BRANCH  50  53
ATOM     53  C   UNL     1     -48.316  35.289  27.535  1.00  0.00     0.023 C 
ATOM     54  H   UNL     1     -49.322  35.727  27.586  1.00  0.00     0.048 H 
ATOM     55  H   UNL     1     -48.233  34.603  28.390  1.00  0.00     0.048 H 
BRANCH  53  56
ATOM     56  N   UNL     1     -48.156  34.548  26.276  1.00  0.00    -0.299 NA
ATOM     57  C   UNL     1     -49.248  33.579  26.106  1.00  0.00    -0.001 C 
ATOM     58  C   UNL     1     -46.816  33.962  26.116  1.00  0.00    -0.001 C 
ATOM     59  C   UNL     1     -48.935  32.563  25.008  1.00  0.00    -0.035 C 
ATOM     60  H   UNL     1     -49.454  33.044  27.042  1.00  0.00     0.043 H 
ATOM     61  H   UNL     1     -50.163  34.122  25.837  1.00  0.00     0.043 H 
ATOM     62  C   UNL     1     -46.776  32.450  26.346  1.00  0.00    -0.035 C 
ATOM     63  H   UNL     1     -46.074  34.439  26.766  1.00  0.00     0.043 H 
ATOM     64  H   UNL     1     -46.482  34.173  25.092  1.00  0.00     0.043 H 
ATOM     65  C   UNL     1     -47.710  31.689  25.374  1.00  0.00    -0.033 C 
ATOM     66  H   UNL     1     -49.816  31.936  24.824  1.00  0.00     0.029 H 
ATOM     67  H   UNL     1     -48.753  33.108  24.071  1.00  0.00     0.029 H 
ATOM     68  H   UNL     1     -47.063  32.253  27.388  1.00  0.00     0.029 H 
ATOM     69  H   UNL     1     -45.744  32.090  26.246  1.00  0.00     0.029 H 
BRANCH  65  70
ATOM     70  C   UNL     1     -46.953  31.319  24.086  1.00  0.00    -0.060 C 
ATOM     71  H   UNL     1     -46.333  32.153  23.740  1.00  0.00     0.024 H 
ATOM     72  H   UNL     1     -46.295  30.457  24.243  1.00  0.00     0.024 H 
ATOM     73  H   UNL     1     -47.648  31.063  23.277  1.00  0.00     0.024 H 
ENDBRANCH  65  70
BRANCH  65  74
ATOM     74  C   UNL     1     -48.174  30.385  26.049  1.00  0.00    -0.060 C 
ATOM     75  H   UNL     1     -47.344  29.681  26.169  1.00  0.00     0.024 H 
ATOM     76  H   UNL     1     -48.592  30.578  27.043  1.00  0.00     0.024 H 
ATOM     77  H   UNL     1     -48.949  29.888  25.453  1.00  0.00     0.024 H 
ENDBRANCH  65  74
ENDBRANCH  53  56
ENDBRANCH  50  53
ENDBRANCH   8  43
TORSDOF 9
ENDMDL
MODEL 2
REMARK VINA RESULT:      -6.8      3.486      8.923
REMARK SMILES CNc1cc(N2CCC3(CC2)CN(c2ccc(CN4CCC(C)(C)CC4)cc2)CC(=O)N3C)ncn1
REMARK SMILES IDX 6 1 7 2 8 3 9 4 10 5 11 6 12 7 13 8 29 9 30 10 31 11 32 12
REMARK SMILES IDX 5 25 3 26 4 27 36 28 35 30 34 31 2 33 1 35 33 39 14 43 15 44
REMARK SMILES IDX 28 45 16 46 27 48 17 50 18 53 19 56 20 57 26 58 21 59 25 62
REMARK SMILES IDX 22 65 23 70 24 74
REMARK H PARENT 7 13 7 14 8 15 8 16 10 17 10 18 11 19 11 20 12 21 12 22 29 23
REMARK H PARENT 29 24 4 29 35 32 2 34 1 36 1 37 1 38 33 40 33 41 33 42 15 47
REMARK H PARENT 28 49 16 51 27 52 18 54 18 55 20 60 20 61 26 63 26 64 21 66
REMARK H PARENT 21 67 25 68 25 69 23 71 23 72 23 73 24 75 24 76 24 77
REMARK Flexibility Score: inf
ROOT
ATOM      1  N   UNL     1     -44.442  40.501  27.757  1.00  0.00    -0.356 N 
ATOM      2  C   UNL     1     -43.144  41.104  28.066  1.00  0.00     0.021 C 
ATOM      3  C   UNL     1     -43.176  42.577  27.658  1.00  0.00    -0.010 C 
ATOM      4  C   UNL     1     -43.758  42.804  26.228  1.00  0.00     0.063 C 
ATOM      5  C   UNL     1     -43.987  41.448  25.513  1.00  0.00    -0.010 C 
ATOM      6  C   UNL     1     -44.829  40.477  26.337  1.00  0.00     0.021 C 
ATOM      7  C   UNL     1     -45.121  43.545  26.431  1.00  0.00     0.042 C 
ATOM      8  N   UNL     1     -45.715  43.837  25.124  1.00  0.00    -0.360 N 
ATOM      9  C   UNL     1     -44.875  44.748  24.314  1.00  0.00     0.097 C 
ATOM     10  C   UNL     1     -43.375  44.401  24.315  1.00  0.00     0.242 C 
ATOM     11  O   UNL     1     -42.650  44.845  23.418  1.00  0.00    -0.273 OA
ATOM     12  N   UNL     1     -42.848  43.650  25.381  1.00  0.00    -0.337 N 
ATOM     13  H   UNL     1     -42.333  40.574  27.553  1.00  0.00     0.049 H 
ATOM     14  H   UNL     1     -42.930  41.074  29.142  1.00  0.00     0.049 H 
ATOM     15  H   UNL     1     -42.178  43.006  27.784  1.00  0.00     0.031 H 
ATOM     16  H   UNL     1     -43.788  43.112  28.399  1.00  0.00     0.031 H 
ATOM     17  H   UNL     1     -43.018  40.973  25.311  1.00  0.00     0.031 H 
ATOM     18  H   UNL     1     -44.448  41.584  24.526  1.00  0.00     0.031 H 
ATOM     19  H   UNL     1     -44.705  39.475  25.905  1.00  0.00     0.049 H 
ATOM     20  H   UNL     1     -45.890  40.742  26.245  1.00  0.00     0.049 H 
ATOM     21  H   UNL     1     -44.955  44.485  26.975  1.00  0.00     0.052 H 
ATOM     22  H   UNL     1     -45.794  42.926  27.036  1.00  0.00     0.052 H 
ATOM     23  H   UNL     1     -45.190  44.722  23.265  1.00  0.00     0.060 H 
ATOM     24  H   UNL     1     -44.965  45.777  24.685  1.00  0.00     0.060 H 
ENDROOT
BRANCH   1  25
ATOM     25  C   UNL     1     -44.717  39.305  28.449  1.00  0.00     0.134 A 
ATOM     26  C   UNL     1     -45.765  37.178  28.593  1.00  0.00     0.131 A 
ATOM     27  C   UNL     1     -45.512  38.327  27.869  1.00  0.00     0.023 A 
ATOM     28  N   UNL     1     -45.256  36.979  29.811  1.00  0.00    -0.219 NA
ATOM     29  H   UNL     1     -45.926  38.456  26.879  1.00  0.00     0.070 H 
ATOM     30  C   UNL     1     -44.513  37.977  30.301  1.00  0.00     0.120 A 
ATOM     31  N   UNL     1     -44.228  39.133  29.688  1.00  0.00    -0.219 NA
ATOM     32  H   UNL     1     -44.100  37.837  31.294  1.00  0.00     0.106 H 
BRANCH  26  33
ATOM     33  N   UNL     1     -46.539  36.131  28.085  1.00  0.00    -0.373 N 
ATOM     34  H   UNL     1     -47.114  36.570  27.366  1.00  0.00     0.161 HD
BRANCH  33  35
ATOM     35  C   UNL     1     -45.770  35.020  27.547  1.00  0.00     0.005 C 
ATOM     36  H   UNL     1     -45.663  34.213  28.281  1.00  0.00     0.045 H 
ATOM     37  H   UNL     1     -44.765  35.373  27.291  1.00  0.00     0.045 H 
ATOM     38  H   UNL     1     -46.218  34.622  26.632  1.00  0.00     0.045 H 
ENDBRANCH  33  35
ENDBRANCH  26  33
ENDBRANCH   1  25
BRANCH  12  39
ATOM     39  C   UNL     1     -41.459  43.238  25.194  1.00  0.00     0.010 C 
ATOM     40  H   UNL     1     -41.110  43.547  24.204  1.00  0.00     0.046 H 
ATOM     41  H   UNL     1     -40.797  43.678  25.940  1.00  0.00     0.046 H 
ATOM     42  H   UNL     1     -41.400  42.147  25.257  1.00  0.00     0.046 H 
ENDBRANCH  12  39
BRANCH   8  43
ATOM     43  C   UNL     1     -47.079  44.174  25.077  1.00  0.00     0.037 A 
ATOM     44  C   UNL     1     -47.988  43.472  25.884  1.00  0.00    -0.038 A 
ATOM     45  C   UNL     1     -47.598  45.198  24.272  1.00  0.00    -0.038 A 
ATOM     46  C   UNL     1     -49.355  43.770  25.883  1.00  0.00    -0.056 A 
ATOM     47  H   UNL     1     -47.630  42.692  26.553  1.00  0.00     0.064 H 
ATOM     48  C   UNL     1     -48.968  45.500  24.264  1.00  0.00    -0.056 A 
ATOM     49  H   UNL     1     -46.955  45.774  23.614  1.00  0.00     0.064 H 
ATOM     50  C   UNL     1     -49.860  44.793  25.075  1.00  0.00    -0.034 A 
ATOM     51  H   UNL     1     -50.025  43.207  26.530  1.00  0.00     0.063 H 
ATOM     52  H   UNL     1     -49.326  46.296  23.615  1.00  0.00     0.063 H 
BRANCH  50  53
ATOM     53  C   UNL     1     -51.342  45.103  25.050  1.00  0.00     0.023 C 
ATOM     54  H   UNL     1     -51.423  46.198  25.057  1.00  0.00     0.048 H 
ATOM     55  H   UNL     1     -51.826  44.750  25.971  1.00  0.00     0.048 H 
BRANCH  53  56
ATOM     56  N   UNL     1     -52.038  44.558  23.874  1.00  0.00    -0.299 NA
ATOM     57  C   UNL     1     -51.461  43.262  23.489  1.00  0.00    -0.001 C 
ATOM     58  C   UNL     1     -52.133  45.517  22.762  1.00  0.00    -0.001 C 
ATOM     59  C   UNL     1     -51.909  42.838  22.091  1.00  0.00    -0.035 C 
ATOM     60  H   UNL     1     -50.364  43.290  23.521  1.00  0.00     0.043 H 
ATOM     61  H   UNL     1     -51.784  42.503  24.211  1.00  0.00     0.043 H 
ATOM     62  C   UNL     1     -51.165  45.222  21.614  1.00  0.00    -0.035 C 
ATOM     63  H   UNL     1     -51.986  46.551  23.093  1.00  0.00     0.043 H 
ATOM     64  H   UNL     1     -53.161  45.478  22.379  1.00  0.00     0.043 H 
ATOM     65  C   UNL     1     -51.394  43.817  21.007  1.00  0.00    -0.033 C 
ATOM     66  H   UNL     1     -51.563  41.817  21.886  1.00  0.00     0.029 H 
ATOM     67  H   UNL     1     -53.007  42.791  22.077  1.00  0.00     0.029 H 
ATOM     68  H   UNL     1     -50.140  45.313  21.996  1.00  0.00     0.029 H 
ATOM     69  H   UNL     1     -51.267  45.995  20.841  1.00  0.00     0.029 H 
BRANCH  65  70
ATOM     70  C   UNL     1     -52.424  43.890  19.865  1.00  0.00    -0.060 C 
ATOM     71  H   UNL     1     -52.054  43.384  18.967  1.00  0.00     0.024 H 
ATOM     72  H   UNL     1     -53.370  43.415  20.149  1.00  0.00     0.024 H 
ATOM     73  H   UNL     1     -52.645  44.930  19.595  1.00  0.00     0.024 H 
ENDBRANCH  65  70
BRANCH  65  74
ATOM     74  C   UNL     1     -50.065  43.306  20.421  1.00  0.00    -0.060 C 
ATOM     75  H   UNL     1     -49.866  42.273  20.728  1.00  0.00     0.024 H 
ATOM     76  H   UNL     1     -50.077  43.331  19.326  1.00  0.00     0.024 H 
ATOM     77  H   UNL     1     -49.223  43.922  20.759  1.00  0.00     0.024 H 
ENDBRANCH  65  74
ENDBRANCH  53  56
ENDBRANCH  50  53
ENDBRANCH   8  43
TORSDOF 9
ENDMDL
MODEL 3
REMARK VINA RESULT:      -6.6      2.678      3.824
REMARK SMILES CNc1cc(N2CCC3(CC2)CN(c2ccc(CN4CCC(C)(C)CC4)cc2)CC(=O)N3C)ncn1
REMARK SMILES IDX 6 1 7 2 8 3 9 4 10 5 11 6 12 7 13 8 29 9 30 10 31 11 32 12
REMARK SMILES IDX 5 25 3 26 4 27 36 28 35 30 34 31 2 33 1 35 33 39 14 43 15 44
REMARK SMILES IDX 28 45 16 46 27 48 17 50 18 53 19 56 20 57 26 58 21 59 25 62
REMARK SMILES IDX 22 65 23 70 24 74
REMARK H PARENT 7 13 7 14 8 15 8 16 10 17 10 18 11 19 11 20 12 21 12 22 29 23
REMARK H PARENT 29 24 4 29 35 32 2 34 1 36 1 37 1 38 33 40 33 41 33 42 15 47
REMARK H PARENT 28 49 16 51 27 52 18 54 18 55 20 60 20 61 26 63 26 64 21 66
REMARK H PARENT 21 67 25 68 25 69 23 71 23 72 23 73 24 75 24 76 24 77
REMARK Flexibility Score: inf
ROOT
ATOM      1  N   UNL     1     -48.081  43.933  25.213  1.00  0.00    -0.356 N 
ATOM      2  C   UNL     1     -47.029  44.727  24.575  1.00  0.00     0.021 C 
ATOM      3  C   UNL     1     -45.734  43.912  24.568  1.00  0.00    -0.010 C 
ATOM      4  C   UNL     1     -45.414  43.260  25.948  1.00  0.00     0.063 C 
ATOM      5  C   UNL     1     -46.405  43.759  27.030  1.00  0.00    -0.010 C 
ATOM      6  C   UNL     1     -47.866  43.578  26.625  1.00  0.00     0.021 C 
ATOM      7  C   UNL     1     -45.573  41.716  25.741  1.00  0.00     0.042 C 
ATOM      8  N   UNL     1     -45.243  41.022  26.988  1.00  0.00    -0.360 N 
ATOM      9  C   UNL     1     -43.835  41.234  27.395  1.00  0.00     0.097 C 
ATOM     10  C   UNL     1     -43.351  42.691  27.282  1.00  0.00     0.242 C 
ATOM     11  O   UNL     1     -42.352  43.048  27.916  1.00  0.00    -0.273 OA
ATOM     12  N   UNL     1     -44.011  43.564  26.398  1.00  0.00    -0.337 N 
ATOM     13  H   UNL     1     -46.887  45.682  25.097  1.00  0.00     0.049 H 
ATOM     14  H   UNL     1     -47.270  44.954  23.530  1.00  0.00     0.049 H 
ATOM     15  H   UNL     1     -44.920  44.539  24.193  1.00  0.00     0.031 H 
ATOM     16  H   UNL     1     -45.840  43.132  23.801  1.00  0.00     0.031 H 
ATOM     17  H   UNL     1     -46.233  44.827  27.218  1.00  0.00     0.031 H 
ATOM     18  H   UNL     1     -46.230  43.269  27.996  1.00  0.00     0.031 H 
ATOM     19  H   UNL     1     -48.478  44.199  27.292  1.00  0.00     0.049 H 
ATOM     20  H   UNL     1     -48.165  42.534  26.787  1.00  0.00     0.049 H 
ATOM     21  H   UNL     1     -44.896  41.378  24.944  1.00  0.00     0.052 H 
ATOM     22  H   UNL     1     -46.597  41.487  25.425  1.00  0.00     0.052 H 
ATOM     23  H   UNL     1     -43.697  40.951  28.445  1.00  0.00     0.060 H 
ATOM     24  H   UNL     1     -43.165  40.626  26.774  1.00  0.00     0.060 H 
ENDROOT
BRANCH   1  25
ATOM     25  C   UNL     1     -49.395  44.348  24.918  1.00  0.00     0.134 A 
ATOM     26  C   UNL     1     -51.276  45.740  25.318  1.00  0.00     0.131 A 
ATOM     27  C   UNL     1     -49.982  45.379  25.636  1.00  0.00     0.023 A 
ATOM     28  N   UNL     1     -51.961  45.144  24.340  1.00  0.00    -0.219 NA
ATOM     29  H   UNL     1     -49.446  45.889  26.424  1.00  0.00     0.070 H 
ATOM     30  C   UNL     1     -51.327  44.151  23.708  1.00  0.00     0.120 A 
ATOM     31  N   UNL     1     -50.084  43.716  23.954  1.00  0.00    -0.219 NA
ATOM     32  H   UNL     1     -51.872  43.649  22.916  1.00  0.00     0.106 H 
BRANCH  26  33
ATOM     33  N   UNL     1     -51.944  46.779  25.974  1.00  0.00    -0.373 N 
ATOM     34  H   UNL     1     -52.848  46.378  26.225  1.00  0.00     0.161 HD
BRANCH  33  35
ATOM     35  C   UNL     1     -51.249  47.299  27.141  1.00  0.00     0.005 C 
ATOM     36  H   UNL     1     -51.018  48.364  27.029  1.00  0.00     0.045 H 
ATOM     37  H   UNL     1     -50.302  46.763  27.260  1.00  0.00     0.045 H 
ATOM     38  H   UNL     1     -51.826  47.146  28.058  1.00  0.00     0.045 H 
ENDBRANCH  33  35
ENDBRANCH  26  33
ENDBRANCH   1  25
BRANCH  12  39
ATOM     39  C   UNL     1     -43.580  44.955  26.498  1.00  0.00     0.010 C 
ATOM     40  H   UNL     1     -44.451  45.607  26.614  1.00  0.00     0.046 H 
ATOM     41  H   UNL     1     -42.917  45.120  27.347  1.00  0.00     0.046 H 
ATOM     42  H   UNL     1     -43.060  45.234  25.575  1.00  0.00     0.046 H 
ENDBRANCH  12  39
BRANCH   8  43
ATOM     43  C   UNL     1     -45.651  39.684  27.128  1.00  0.00     0.037 A 
ATOM     44  C   UNL     1     -44.912  38.825  27.956  1.00  0.00    -0.038 A 
ATOM     45  C   UNL     1     -46.780  39.147  26.495  1.00  0.00    -0.038 A 
ATOM     46  C   UNL     1     -45.276  37.486  28.138  1.00  0.00    -0.056 A 
ATOM     47  H   UNL     1     -44.047  39.202  28.498  1.00  0.00     0.064 H 
ATOM     48  C   UNL     1     -47.149  37.805  26.671  1.00  0.00    -0.056 A 
ATOM     49  H   UNL     1     -47.392  39.750  25.832  1.00  0.00     0.064 H 
ATOM     50  C   UNL     1     -46.404  36.962  27.500  1.00  0.00    -0.034 A 
ATOM     51  H   UNL     1     -44.680  36.855  28.795  1.00  0.00     0.063 H 
ATOM     52  H   UNL     1     -48.028  37.429  26.152  1.00  0.00     0.063 H 
BRANCH  50  53
ATOM     53  C   UNL     1     -46.788  35.507  27.673  1.00  0.00     0.023 C 
ATOM     54  H   UNL     1     -47.566  35.489  28.449  1.00  0.00     0.048 H 
ATOM     55  H   UNL     1     -45.942  34.929  28.068  1.00  0.00     0.048 H 
BRANCH  53  56
ATOM     56  N   UNL     1     -47.295  34.882  26.442  1.00  0.00    -0.299 NA
ATOM     57  C   UNL     1     -48.548  34.162  26.707  1.00  0.00    -0.001 C 
ATOM     58  C   UNL     1     -46.283  34.071  25.746  1.00  0.00    -0.001 C 
ATOM     59  C   UNL     1     -48.914  33.223  25.558  1.00  0.00    -0.035 C 
ATOM     60  H   UNL     1     -48.484  33.583  27.637  1.00  0.00     0.043 H 
ATOM     61  H   UNL     1     -49.355  34.894  26.838  1.00  0.00     0.043 H 
ATOM     62  C   UNL     1     -46.484  32.564  25.914  1.00  0.00    -0.035 C 
ATOM     63  H   UNL     1     -45.263  34.329  26.052  1.00  0.00     0.043 H 
ATOM     64  H   UNL     1     -46.336  34.320  24.679  1.00  0.00     0.043 H 
ATOM     65  C   UNL     1     -47.862  32.099  25.385  1.00  0.00    -0.033 C 
ATOM     66  H   UNL     1     -49.910  32.798  25.732  1.00  0.00     0.029 H 
ATOM     67  H   UNL     1     -48.997  33.817  24.637  1.00  0.00     0.029 H 
ATOM     68  H   UNL     1     -46.379  32.319  26.979  1.00  0.00     0.029 H 
ATOM     69  H   UNL     1     -45.676  32.027  25.401  1.00  0.00     0.029 H 
BRANCH  65  70
ATOM     70  C   UNL     1     -47.765  31.726  23.895  1.00  0.00    -0.060 C 
ATOM     71  H   UNL     1     -46.873  32.167  23.436  1.00  0.00     0.024 H 
ATOM     72  H   UNL     1     -47.708  30.641  23.758  1.00  0.00     0.024 H 
ATOM     73  H   UNL     1     -48.638  32.086  23.338  1.00  0.00     0.024 H 
ENDBRANCH  65  70
BRANCH  65  74
ATOM     74  C   UNL     1     -48.297  30.845  26.166  1.00  0.00    -0.060 C 
ATOM     75  H   UNL     1     -48.911  31.109  27.035  1.00  0.00     0.024 H 
ATOM     76  H   UNL     1     -48.886  30.169  25.536  1.00  0.00     0.024 H 
ATOM     77  H   UNL     1     -47.426  30.287  26.530  1.00  0.00     0.024 H 
ENDBRANCH  65  74
ENDBRANCH  53  56
ENDBRANCH  50  53
ENDBRANCH   8  43
TORSDOF 9
ENDMDL
MODEL 4
REMARK VINA RESULT:      -6.5      3.471      4.855
REMARK SMILES CNc1cc(N2CCC3(CC2)CN(c2ccc(CN4CCC(C)(C)CC4)cc2)CC(=O)N3C)ncn1
REMARK SMILES IDX 6 1 7 2 8 3 9 4 10 5 11 6 12 7 13 8 29 9 30 10 31 11 32 12
REMARK SMILES IDX 5 25 3 26 4 27 36 28 35 30 34 31 2 33 1 35 33 39 14 43 15 44
REMARK SMILES IDX 28 45 16 46 27 48 17 50 18 53 19 56 20 57 26 58 21 59 25 62
REMARK SMILES IDX 22 65 23 70 24 74
REMARK H PARENT 7 13 7 14 8 15 8 16 10 17 10 18 11 19 11 20 12 21 12 22 29 23
REMARK H PARENT 29 24 4 29 35 32 2 34 1 36 1 37 1 38 33 40 33 41 33 42 15 47
REMARK H PARENT 28 49 16 51 27 52 18 54 18 55 20 60 20 61 26 63 26 64 21 66
REMARK H PARENT 21 67 25 68 25 69 23 71 23 72 23 73 24 75 24 76 24 77
REMARK Flexibility Score: inf
ROOT
ATOM      1  N   UNL     1     -48.778  40.964  26.806  1.00  0.00    -0.356 N 
ATOM      2  C   UNL     1     -47.526  41.713  26.672  1.00  0.00     0.021 C 
ATOM      3  C   UNL     1     -46.384  40.723  26.438  1.00  0.00    -0.010 C 
ATOM      4  C   UNL     1     -46.404  39.519  27.428  1.00  0.00     0.063 C 
ATOM      5  C   UNL     1     -47.482  39.731  28.522  1.00  0.00    -0.010 C 
ATOM      6  C   UNL     1     -48.862  40.033  27.944  1.00  0.00     0.021 C 
ATOM      7  C   UNL     1     -46.750  38.259  26.567  1.00  0.00     0.042 C 
ATOM      8  N   UNL     1     -46.745  37.069  27.421  1.00  0.00    -0.360 N 
ATOM      9  C   UNL     1     -45.412  36.804  28.009  1.00  0.00     0.097 C 
ATOM     10  C   UNL     1     -44.708  38.050  28.578  1.00  0.00     0.242 C 
ATOM     11  O   UNL     1     -43.791  37.907  29.394  1.00  0.00    -0.273 OA
ATOM     12  N   UNL     1     -45.071  39.320  28.095  1.00  0.00    -0.337 N 
ATOM     13  H   UNL     1     -47.337  42.324  27.563  1.00  0.00     0.049 H 
ATOM     14  H   UNL     1     -47.549  42.387  25.807  1.00  0.00     0.049 H 
ATOM     15  H   UNL     1     -45.434  41.266  26.446  1.00  0.00     0.031 H 
ATOM     16  H   UNL     1     -46.469  40.359  25.404  1.00  0.00     0.031 H 
ATOM     17  H   UNL     1     -47.190  40.572  29.165  1.00  0.00     0.031 H 
ATOM     18  H   UNL     1     -47.550  38.868  29.197  1.00  0.00     0.031 H 
ATOM     19  H   UNL     1     -49.482  40.444  28.751  1.00  0.00     0.049 H 
ATOM     20  H   UNL     1     -49.334  39.099  27.614  1.00  0.00     0.049 H 
ATOM     21  H   UNL     1     -46.004  38.140  25.769  1.00  0.00     0.052 H 
ATOM     22  H   UNL     1     -47.728  38.392  26.089  1.00  0.00     0.052 H 
ATOM     23  H   UNL     1     -45.500  36.100  28.845  1.00  0.00     0.060 H 
ATOM     24  H   UNL     1     -44.742  36.375  27.254  1.00  0.00     0.060 H 
ENDROOT
BRANCH   1  25
ATOM     25  C   UNL     1     -49.945  41.723  26.596  1.00  0.00     0.134 A 
ATOM     26  C   UNL     1     -51.032  43.726  25.927  1.00  0.00     0.131 A 
ATOM     27  C   UNL     1     -49.860  43.017  26.103  1.00  0.00     0.023 A 
ATOM     28  N   UNL     1     -52.229  43.200  26.198  1.00  0.00    -0.219 NA
ATOM     29  H   UNL     1     -48.906  43.463  25.862  1.00  0.00     0.070 H 
ATOM     30  C   UNL     1     -52.220  41.954  26.682  1.00  0.00     0.120 A 
ATOM     31  N   UNL     1     -51.140  41.194  26.906  1.00  0.00    -0.219 NA
ATOM     32  H   UNL     1     -53.183  41.514  26.918  1.00  0.00     0.106 H 
BRANCH  26  33
ATOM     33  N   UNL     1     -51.048  45.028  25.418  1.00  0.00    -0.373 N 
ATOM     34  H   UNL     1     -50.187  45.095  24.874  1.00  0.00     0.161 HD
BRANCH  33  35
ATOM     35  C   UNL     1     -52.215  45.346  24.611  1.00  0.00     0.005 C 
ATOM     36  H   UNL     1     -52.191  46.384  24.262  1.00  0.00     0.045 H 
ATOM     37  H   UNL     1     -53.115  45.220  25.222  1.00  0.00     0.045 H 
ATOM     38  H   UNL     1     -52.308  44.675  23.752  1.00  0.00     0.045 H 
ENDBRANCH  33  35
ENDBRANCH  26  33
ENDBRANCH   1  25
BRANCH  12  39
ATOM     39  C   UNL     1     -44.463  40.432  28.821  1.00  0.00     0.010 C 
ATOM     40  H   UNL     1     -44.330  40.161  29.873  1.00  0.00     0.046 H 
ATOM     41  H   UNL     1     -43.488  40.703  28.415  1.00  0.00     0.046 H 
ATOM     42  H   UNL     1     -45.130  41.299  28.769  1.00  0.00     0.046 H 
ENDBRANCH  12  39
BRANCH   8  43
ATOM     43  C   UNL     1     -47.363  35.903  26.936  1.00  0.00     0.037 A 
ATOM     44  C   UNL     1     -46.609  34.988  26.186  1.00  0.00    -0.038 A 
ATOM     45  C   UNL     1     -48.707  35.582  27.172  1.00  0.00    -0.038 A 
ATOM     46  C   UNL     1     -47.170  33.809  25.684  1.00  0.00    -0.056 A 
ATOM     47  H   UNL     1     -45.552  35.174  26.005  1.00  0.00     0.064 H 
ATOM     48  C   UNL     1     -49.277  34.403  26.670  1.00  0.00    -0.056 A 
ATOM     49  H   UNL     1     -49.353  36.250  27.734  1.00  0.00     0.064 H 
ATOM     50  C   UNL     1     -48.512  33.501  25.926  1.00  0.00    -0.034 A 
ATOM     51  H   UNL     1     -46.549  33.121  25.114  1.00  0.00     0.063 H 
ATOM     52  H   UNL     1     -50.327  34.201  26.870  1.00  0.00     0.063 H 
BRANCH  50  53
ATOM     53  C   UNL     1     -49.133  32.238  25.364  1.00  0.00     0.023 C 
ATOM     54  H   UNL     1     -49.619  32.532  24.424  1.00  0.00     0.048 H 
ATOM     55  H   UNL     1     -49.931  31.873  26.025  1.00  0.00     0.048 H 
BRANCH  53  56
ATOM     56  N   UNL     1     -48.159  31.166  25.110  1.00  0.00    -0.299 NA
ATOM     57  C   UNL     1     -48.025  30.923  23.667  1.00  0.00    -0.001 C 
ATOM     58  C   UNL     1     -48.422  29.948  25.893  1.00  0.00    -0.001 C 
ATOM     59  C   UNL     1     -47.304  29.606  23.381  1.00  0.00    -0.035 C 
ATOM     60  H   UNL     1     -49.005  30.909  23.173  1.00  0.00     0.043 H 
ATOM     61  H   UNL     1     -47.451  31.745  23.222  1.00  0.00     0.043 H 
ATOM     62  C   UNL     1     -49.029  28.810  25.071  1.00  0.00    -0.035 C 
ATOM     63  H   UNL     1     -49.065  30.143  26.759  1.00  0.00     0.043 H 
ATOM     64  H   UNL     1     -47.466  29.612  26.313  1.00  0.00     0.043 H 
ATOM     65  C   UNL     1     -48.115  28.390  23.895  1.00  0.00    -0.033 C 
ATOM     66  H   UNL     1     -47.112  29.516  22.305  1.00  0.00     0.029 H 
ATOM     67  H   UNL     1     -46.315  29.639  23.861  1.00  0.00     0.029 H 
ATOM     68  H   UNL     1     -50.008  29.139  24.698  1.00  0.00     0.029 H 
ATOM     69  H   UNL     1     -49.231  27.952  25.725  1.00  0.00     0.029 H 
BRANCH  65  70
ATOM     70  C   UNL     1     -47.139  27.288  24.344  1.00  0.00    -0.060 C 
ATOM     71  H   UNL     1     -47.507  26.296  24.060  1.00  0.00     0.024 H 
ATOM     72  H   UNL     1     -46.152  27.419  23.889  1.00  0.00     0.024 H 
ATOM     73  H   UNL     1     -47.006  27.295  25.432  1.00  0.00     0.024 H 
ENDBRANCH  65  70
BRANCH  65  74
ATOM     74  C   UNL     1     -48.991  27.823  22.762  1.00  0.00    -0.060 C 
ATOM     75  H   UNL     1     -48.997  26.727  22.774  1.00  0.00     0.024 H 
ATOM     76  H   UNL     1     -50.028  28.163  22.853  1.00  0.00     0.024 H 
ATOM     77  H   UNL     1     -48.620  28.143  21.781  1.00  0.00     0.024 H 
ENDBRANCH  65  74
ENDBRANCH  53  56
ENDBRANCH  50  53
ENDBRANCH   8  43
TORSDOF 9
ENDMDL
MODEL 5
REMARK VINA RESULT:      -6.4      0.967      2.025
REMARK SMILES CNc1cc(N2CCC3(CC2)CN(c2ccc(CN4CCC(C)(C)CC4)cc2)CC(=O)N3C)ncn1
REMARK SMILES IDX 6 1 7 2 8 3 9 4 10 5 11 6 12 7 13 8 29 9 30 10 31 11 32 12
REMARK SMILES IDX 5 25 3 26 4 27 36 28 35 30 34 31 2 33 1 35 33 39 14 43 15 44
REMARK SMILES IDX 28 45 16 46 27 48 17 50 18 53 19 56 20 57 26 58 21 59 25 62
REMARK SMILES IDX 22 65 23 70 24 74
REMARK H PARENT 7 13 7 14 8 15 8 16 10 17 10 18 11 19 11 20 12 21 12 22 29 23
REMARK H PARENT 29 24 4 29 35 32 2 34 1 36 1 37 1 38 33 40 33 41 33 42 15 47
REMARK H PARENT 28 49 16 51 27 52 18 54 18 55 20 60 20 61 26 63 26 64 21 66
REMARK H PARENT 21 67 25 68 25 69 23 71 23 72 23 73 24 75 24 76 24 77
REMARK Flexibility Score: inf
ROOT
ATOM      1  N   UNL     1     -44.539  42.851  25.068  1.00  0.00    -0.356 N 
ATOM      2  C   UNL     1     -43.117  43.127  25.284  1.00  0.00     0.021 C 
ATOM      3  C   UNL     1     -42.482  41.921  25.977  1.00  0.00    -0.010 C 
ATOM      4  C   UNL     1     -43.312  41.406  27.193  1.00  0.00     0.063 C 
ATOM      5  C   UNL     1     -44.486  42.370  27.499  1.00  0.00    -0.010 C 
ATOM      6  C   UNL     1     -45.356  42.653  26.277  1.00  0.00     0.021 C 
ATOM      7  C   UNL     1     -43.863  40.002  26.773  1.00  0.00     0.042 C 
ATOM      8  N   UNL     1     -44.623  39.425  27.885  1.00  0.00    -0.360 N 
ATOM      9  C   UNL     1     -43.781  39.190  29.081  1.00  0.00     0.097 C 
ATOM     10  C   UNL     1     -42.839  40.355  29.436  1.00  0.00     0.242 C 
ATOM     11  O   UNL     1     -42.372  40.430  30.577  1.00  0.00    -0.273 OA
ATOM     12  N   UNL     1     -42.467  41.264  28.429  1.00  0.00    -0.337 N 
ATOM     13  H   UNL     1     -42.980  44.037  25.881  1.00  0.00     0.049 H 
ATOM     14  H   UNL     1     -42.584  43.269  24.336  1.00  0.00     0.049 H 
ATOM     15  H   UNL     1     -41.448  42.163  26.240  1.00  0.00     0.031 H 
ATOM     16  H   UNL     1     -42.383  41.123  25.227  1.00  0.00     0.031 H 
ATOM     17  H   UNL     1     -44.088  43.327  27.862  1.00  0.00     0.031 H 
ATOM     18  H   UNL     1     -45.115  41.996  28.316  1.00  0.00     0.031 H 
ATOM     19  H   UNL     1     -45.967  43.538  26.496  1.00  0.00     0.049 H 
ATOM     20  H   UNL     1     -46.045  41.814  26.115  1.00  0.00     0.049 H 
ATOM     21  H   UNL     1     -43.026  39.337  26.519  1.00  0.00     0.052 H 
ATOM     22  H   UNL     1     -44.491  40.100  25.881  1.00  0.00     0.052 H 
ATOM     23  H   UNL     1     -44.412  39.033  29.964  1.00  0.00     0.060 H 
ATOM     24  H   UNL     1     -43.152  38.304  28.933  1.00  0.00     0.060 H 
ENDROOT
BRANCH   1  25
ATOM     25  C   UNL     1     -45.152  43.650  24.083  1.00  0.00     0.134 A 
ATOM     26  C   UNL     1     -46.832  45.181  23.395  1.00  0.00     0.131 A 
ATOM     27  C   UNL     1     -46.257  44.426  24.398  1.00  0.00     0.023 A 
ATOM     28  N   UNL     1     -46.347  45.198  22.151  1.00  0.00    -0.219 NA
ATOM     29  H   UNL     1     -46.663  44.443  25.400  1.00  0.00     0.070 H 
ATOM     30  C   UNL     1     -45.289  44.410  21.929  1.00  0.00     0.120 A 
ATOM     31  N   UNL     1     -44.675  43.629  22.828  1.00  0.00    -0.219 NA
ATOM     32  H   UNL     1     -44.888  44.403  20.922  1.00  0.00     0.106 H 
BRANCH  26  33
ATOM     33  N   UNL     1     -47.936  46.008  23.622  1.00  0.00    -0.373 N 
ATOM     34  H   UNL     1     -48.294  46.211  22.688  1.00  0.00     0.161 HD
BRANCH  33  35
ATOM     35  C   UNL     1     -48.962  45.423  24.470  1.00  0.00     0.005 C 
ATOM     36  H   UNL     1     -48.759  45.608  25.531  1.00  0.00     0.045 H 
ATOM     37  H   UNL     1     -48.975  44.339  24.318  1.00  0.00     0.045 H 
ATOM     38  H   UNL     1     -49.958  45.799  24.219  1.00  0.00     0.045 H 
ENDBRANCH  33  35
ENDBRANCH  26  33
ENDBRANCH   1  25
BRANCH  12  39
ATOM     39  C   UNL     1     -41.712  42.417  28.913  1.00  0.00     0.010 C 
ATOM     40  H   UNL     1     -40.643  42.185  28.920  1.00  0.00     0.046 H 
ATOM     41  H   UNL     1     -41.864  43.298  28.289  1.00  0.00     0.046 H 
ATOM     42  H   UNL     1     -42.024  42.643  29.938  1.00  0.00     0.046 H 
ENDBRANCH  12  39
BRANCH   8  43
ATOM     43  C   UNL     1     -45.484  38.349  27.611  1.00  0.00     0.037 A 
ATOM     44  C   UNL     1     -46.631  38.570  26.833  1.00  0.00    -0.038 A 
ATOM     45  C   UNL     1     -45.258  37.040  28.059  1.00  0.00    -0.038 A 
ATOM     46  C   UNL     1     -47.520  37.535  26.523  1.00  0.00    -0.056 A 
ATOM     47  H   UNL     1     -46.833  39.560  26.431  1.00  0.00     0.064 H 
ATOM     48  C   UNL     1     -46.146  35.998  27.754  1.00  0.00    -0.056 A 
ATOM     49  H   UNL     1     -44.397  36.799  28.675  1.00  0.00     0.064 H 
ATOM     50  C   UNL     1     -47.284  36.234  26.977  1.00  0.00    -0.034 A 
ATOM     51  H   UNL     1     -48.395  37.746  25.910  1.00  0.00     0.063 H 
ATOM     52  H   UNL     1     -45.935  35.000  28.132  1.00  0.00     0.063 H 
BRANCH  50  53
ATOM     53  C   UNL     1     -48.256  35.114  26.666  1.00  0.00     0.023 C 
ATOM     54  H   UNL     1     -48.795  35.423  25.761  1.00  0.00     0.048 H 
ATOM     55  H   UNL     1     -49.009  35.025  27.461  1.00  0.00     0.048 H 
BRANCH  53  56
ATOM     56  N   UNL     1     -47.604  33.815  26.442  1.00  0.00    -0.299 NA
ATOM     57  C   UNL     1     -46.855  33.825  25.178  1.00  0.00    -0.001 C 
ATOM     58  C   UNL     1     -48.525  32.675  26.574  1.00  0.00    -0.001 C 
ATOM     59  C   UNL     1     -46.463  32.414  24.742  1.00  0.00    -0.035 C 
ATOM     60  H   UNL     1     -47.435  34.300  24.376  1.00  0.00     0.043 H 
ATOM     61  H   UNL     1     -45.944  34.421  25.313  1.00  0.00     0.043 H 
ATOM     62  C   UNL     1     -48.932  32.058  25.234  1.00  0.00    -0.035 C 
ATOM     63  H   UNL     1     -49.431  32.936  27.133  1.00  0.00     0.043 H 
ATOM     64  H   UNL     1     -48.022  31.910  27.179  1.00  0.00     0.043 H 
ATOM     65  C   UNL     1     -47.710  31.547  24.434  1.00  0.00    -0.033 C 
ATOM     66  H   UNL     1     -45.804  32.468  23.867  1.00  0.00     0.029 H 
ATOM     67  H   UNL     1     -45.864  31.956  25.542  1.00  0.00     0.029 H 
ATOM     68  H   UNL     1     -49.479  32.816  24.658  1.00  0.00     0.029 H 
ATOM     69  H   UNL     1     -49.645  31.241  25.408  1.00  0.00     0.029 H 
BRANCH  65  70
ATOM     70  C   UNL     1     -47.407  30.083  24.799  1.00  0.00    -0.060 C 
ATOM     71  H   UNL     1     -46.378  29.816  24.533  1.00  0.00     0.024 H 
ATOM     72  H   UNL     1     -47.529  29.905  25.873  1.00  0.00     0.024 H 
ATOM     73  H   UNL     1     -48.077  29.395  24.271  1.00  0.00     0.024 H 
ENDBRANCH  65  70
BRANCH  65  74
ATOM     74  C   UNL     1     -48.038  31.609  22.931  1.00  0.00    -0.060 C 
ATOM     75  H   UNL     1     -48.284  30.617  22.536  1.00  0.00     0.024 H 
ATOM     76  H   UNL     1     -48.894  32.265  22.738  1.00  0.00     0.024 H 
ATOM     77  H   UNL     1     -47.186  31.995  22.358  1.00  0.00     0.024 H 
ENDBRANCH  65  74
ENDBRANCH  53  56
ENDBRANCH  50  53
ENDBRANCH   8  43
TORSDOF 9
ENDMDL
MODEL 6
REMARK VINA RESULT:      -6.3      4.146      8.864
REMARK SMILES CNc1cc(N2CCC3(CC2)CN(c2ccc(CN4CCC(C)(C)CC4)cc2)CC(=O)N3C)ncn1
REMARK SMILES IDX 6 1 7 2 8 3 9 4 10 5 11 6 12 7 13 8 29 9 30 10 31 11 32 12
REMARK SMILES IDX 5 25 3 26 4 27 36 28 35 30 34 31 2 33 1 35 33 39 14 43 15 44
REMARK SMILES IDX 28 45 16 46 27 48 17 50 18 53 19 56 20 57 26 58 21 59 25 62
REMARK SMILES IDX 22 65 23 70 24 74
REMARK H PARENT 7 13 7 14 8 15 8 16 10 17 10 18 11 19 11 20 12 21 12 22 29 23
REMARK H PARENT 29 24 4 29 35 32 2 34 1 36 1 37 1 38 33 40 33 41 33 42 15 47
REMARK H PARENT 28 49 16 51 27 52 18 54 18 55 20 60 20 61 26 63 26 64 21 66
REMARK H PARENT 21 67 25 68 25 69 23 71 23 72 23 73 24 75 24 76 24 77
REMARK Flexibility Score: inf
ROOT
ATOM      1  N   UNL     1     -44.358  40.764  27.676  1.00  0.00    -0.356 N 
ATOM      2  C   UNL     1     -42.974  41.241  27.711  1.00  0.00     0.021 C 
ATOM      3  C   UNL     1     -42.962  42.738  27.398  1.00  0.00    -0.010 C 
ATOM      4  C   UNL     1     -43.826  43.110  26.153  1.00  0.00     0.063 C 
ATOM      5  C   UNL     1     -44.332  41.831  25.440  1.00  0.00    -0.010 C 
ATOM      6  C   UNL     1     -45.053  40.872  26.383  1.00  0.00     0.021 C 
ATOM      7  C   UNL     1     -45.036  43.938  26.702  1.00  0.00     0.042 C 
ATOM      8  N   UNL     1     -45.878  44.368  25.583  1.00  0.00    -0.360 N 
ATOM      9  C   UNL     1     -45.161  45.267  24.651  1.00  0.00     0.097 C 
ATOM     10  C   UNL     1     -43.737  44.806  24.289  1.00  0.00     0.242 C 
ATOM     11  O   UNL     1     -43.194  45.256  23.275  1.00  0.00    -0.273 OA
ATOM     12  N   UNL     1     -43.055  43.943  25.166  1.00  0.00    -0.337 N 
ATOM     13  H   UNL     1     -42.350  40.688  26.997  1.00  0.00     0.049 H 
ATOM     14  H   UNL     1     -42.528  41.118  28.705  1.00  0.00     0.049 H 
ATOM     15  H   UNL     1     -41.926  43.078  27.314  1.00  0.00     0.031 H 
ATOM     16  H   UNL     1     -43.340  43.264  28.286  1.00  0.00     0.031 H 
ATOM     17  H   UNL     1     -43.481  41.298  24.996  1.00  0.00     0.031 H 
ATOM     18  H   UNL     1     -44.988  42.073  24.593  1.00  0.00     0.031 H 
ATOM     19  H   UNL     1     -45.121  39.897  25.883  1.00  0.00     0.049 H 
ATOM     20  H   UNL     1     -46.079  41.223  26.551  1.00  0.00     0.049 H 
ATOM     21  H   UNL     1     -44.666  44.821  27.242  1.00  0.00     0.052 H 
ATOM     22  H   UNL     1     -45.610  43.332  27.412  1.00  0.00     0.052 H 
ATOM     23  H   UNL     1     -45.704  45.341  23.702  1.00  0.00     0.060 H 
ATOM     24  H   UNL     1     -45.071  46.270  25.086  1.00  0.00     0.060 H 
ENDROOT
BRANCH   1  25
ATOM     25  C   UNL     1     -44.579  39.546  28.349  1.00  0.00     0.134 A 
ATOM     26  C   UNL     1     -45.579  37.396  28.486  1.00  0.00     0.131 A 
ATOM     27  C   UNL     1     -45.381  38.567  27.781  1.00  0.00     0.023 A 
ATOM     28  N   UNL     1     -45.012  37.178  29.675  1.00  0.00    -0.219 NA
ATOM     29  H   UNL     1     -45.841  38.711  26.814  1.00  0.00     0.070 H 
ATOM     30  C   UNL     1     -44.267  38.178  30.157  1.00  0.00     0.120 A 
ATOM     31  N   UNL     1     -44.031  39.354  29.560  1.00  0.00    -0.219 NA
ATOM     32  H   UNL     1     -43.807  38.022  31.126  1.00  0.00     0.106 H 
BRANCH  26  33
ATOM     33  N   UNL     1     -46.355  36.346  27.987  1.00  0.00    -0.373 N 
ATOM     34  H   UNL     1     -47.118  36.257  28.658  1.00  0.00     0.161 HD
BRANCH  33  35
ATOM     35  C   UNL     1     -46.853  36.555  26.637  1.00  0.00     0.005 C 
ATOM     36  H   UNL     1     -47.492  35.726  26.312  1.00  0.00     0.045 H 
ATOM     37  H   UNL     1     -46.004  36.612  25.948  1.00  0.00     0.045 H 
ATOM     38  H   UNL     1     -47.406  37.495  26.550  1.00  0.00     0.045 H 
ENDBRANCH  33  35
ENDBRANCH  26  33
ENDBRANCH   1  25
BRANCH  12  39
ATOM     39  C   UNL     1     -41.788  43.439  24.644  1.00  0.00     0.010 C 
ATOM     40  H   UNL     1     -41.716  42.361  24.818  1.00  0.00     0.046 H 
ATOM     41  H   UNL     1     -41.685  43.618  23.573  1.00  0.00     0.046 H 
ATOM     42  H   UNL     1     -40.964  43.931  25.172  1.00  0.00     0.046 H 
ENDBRANCH  12  39
BRANCH   8  43
ATOM     43  C   UNL     1     -47.181  44.812  25.868  1.00  0.00     0.037 A 
ATOM     44  C   UNL     1     -48.212  44.547  24.953  1.00  0.00    -0.038 A 
ATOM     45  C   UNL     1     -47.527  45.502  27.038  1.00  0.00    -0.038 A 
ATOM     46  C   UNL     1     -49.528  44.959  25.187  1.00  0.00    -0.056 A 
ATOM     47  H   UNL     1     -48.002  43.984  24.046  1.00  0.00     0.064 H 
ATOM     48  C   UNL     1     -48.844  45.921  27.278  1.00  0.00    -0.056 A 
ATOM     49  H   UNL     1     -46.779  45.751  27.784  1.00  0.00     0.064 H 
ATOM     50  C   UNL     1     -49.860  45.648  26.358  1.00  0.00    -0.034 A 
ATOM     51  H   UNL     1     -50.300  44.727  24.456  1.00  0.00     0.063 H 
ATOM     52  H   UNL     1     -49.064  46.462  28.196  1.00  0.00     0.063 H 
BRANCH  50  53
ATOM     53  C   UNL     1     -51.278  46.119  26.606  1.00  0.00     0.023 C 
ATOM     54  H   UNL     1     -51.787  46.075  25.634  1.00  0.00     0.048 H 
ATOM     55  H   UNL     1     -51.285  47.175  26.912  1.00  0.00     0.048 H 
BRANCH  53  56
ATOM     56  N   UNL     1     -52.005  45.304  27.590  1.00  0.00    -0.299 NA
ATOM     57  C   UNL     1     -51.538  45.600  28.952  1.00  0.00    -0.001 C 
ATOM     58  C   UNL     1     -52.006  43.869  27.265  1.00  0.00    -0.001 C 
ATOM     59  C   UNL     1     -52.006  44.544  29.952  1.00  0.00    -0.035 C 
ATOM     60  H   UNL     1     -50.443  45.669  28.990  1.00  0.00     0.043 H 
ATOM     61  H   UNL     1     -51.933  46.577  29.256  1.00  0.00     0.043 H 
ATOM     62  C   UNL     1     -51.056  43.042  28.133  1.00  0.00    -0.035 C 
ATOM     63  H   UNL     1     -51.775  43.683  26.210  1.00  0.00     0.043 H 
ATOM     64  H   UNL     1     -53.030  43.498  27.407  1.00  0.00     0.043 H 
ATOM     65  C   UNL     1     -51.398  43.154  29.638  1.00  0.00    -0.033 C 
ATOM     66  H   UNL     1     -51.747  44.859  30.970  1.00  0.00     0.029 H 
ATOM     67  H   UNL     1     -53.104  44.499  29.922  1.00  0.00     0.029 H 
ATOM     68  H   UNL     1     -50.030  43.388  27.946  1.00  0.00     0.029 H 
ATOM     69  H   UNL     1     -51.083  41.994  27.811  1.00  0.00     0.029 H 
BRANCH  65  70
ATOM     70  C   UNL     1     -52.406  42.062  30.039  1.00  0.00    -0.060 C 
ATOM     71  H   UNL     1     -53.002  42.375  30.904  1.00  0.00     0.024 H 
ATOM     72  H   UNL     1     -53.099  41.839  29.221  1.00  0.00     0.024 H 
ATOM     73  H   UNL     1     -51.896  41.129  30.305  1.00  0.00     0.024 H 
ENDBRANCH  65  70
BRANCH  65  74
ATOM     74  C   UNL     1     -50.112  42.943  30.458  1.00  0.00    -0.060 C 
ATOM     75  H   UNL     1     -49.292  43.565  30.080  1.00  0.00     0.024 H 
ATOM     76  H   UNL     1     -50.266  43.201  31.512  1.00  0.00     0.024 H 
ATOM     77  H   UNL     1     -49.785  41.898  30.415  1.00  0.00     0.024 H 
ENDBRANCH  65  74
ENDBRANCH  53  56
ENDBRANCH  50  53
ENDBRANCH   8  43
TORSDOF 9
ENDMDL
MODEL 7
REMARK VINA RESULT:      -6.2      3.288      9.511
REMARK SMILES CNc1cc(N2CCC3(CC2)CN(c2ccc(CN4CCC(C)(C)CC4)cc2)CC(=O)N3C)ncn1
REMARK SMILES IDX 6 1 7 2 8 3 9 4 10 5 11 6 12 7 13 8 29 9 30 10 31 11 32 12
REMARK SMILES IDX 5 25 3 26 4 27 36 28 35 30 34 31 2 33 1 35 33 39 14 43 15 44
REMARK SMILES IDX 28 45 16 46 27 48 17 50 18 53 19 56 20 57 26 58 21 59 25 62
REMARK SMILES IDX 22 65 23 70 24 74
REMARK H PARENT 7 13 7 14 8 15 8 16 10 17 10 18 11 19 11 20 12 21 12 22 29 23
REMARK H PARENT 29 24 4 29 35 32 2 34 1 36 1 37 1 38 33 40 33 41 33 42 15 47
REMARK H PARENT 28 49 16 51 27 52 18 54 18 55 20 60 20 61 26 63 26 64 21 66
REMARK H PARENT 21 67 25 68 25 69 23 71 23 72 23 73 24 75 24 76 24 77
REMARK Flexibility Score: inf
ROOT
ATOM      1  N   UNL     1     -44.887  39.548  28.215  1.00  0.00    -0.356 N 
ATOM      2  C   UNL     1     -43.619  39.823  28.896  1.00  0.00     0.021 C 
ATOM      3  C   UNL     1     -43.231  41.281  28.644  1.00  0.00    -0.010 C 
ATOM      4  C   UNL     1     -43.354  41.697  27.146  1.00  0.00     0.063 C 
ATOM      5  C   UNL     1     -43.666  40.463  26.262  1.00  0.00    -0.010 C 
ATOM      6  C   UNL     1     -44.881  39.676  26.749  1.00  0.00     0.021 C 
ATOM      7  C   UNL     1     -44.535  42.722  27.079  1.00  0.00     0.042 C 
ATOM      8  N   UNL     1     -44.687  43.199  25.703  1.00  0.00    -0.360 N 
ATOM      9  C   UNL     1     -43.491  43.927  25.223  1.00  0.00     0.097 C 
ATOM     10  C   UNL     1     -42.152  43.245  25.559  1.00  0.00     0.242 C 
ATOM     11  O   UNL     1     -41.140  43.549  24.920  1.00  0.00    -0.273 OA
ATOM     12  N   UNL     1     -42.095  42.348  26.641  1.00  0.00    -0.337 N 
ATOM     13  H   UNL     1     -42.831  39.143  28.547  1.00  0.00     0.049 H 
ATOM     14  H   UNL     1     -43.708  39.698  29.982  1.00  0.00     0.049 H 
ATOM     15  H   UNL     1     -42.234  41.462  29.056  1.00  0.00     0.031 H 
ATOM     16  H   UNL     1     -43.889  41.909  29.261  1.00  0.00     0.031 H 
ATOM     17  H   UNL     1     -42.801  39.787  26.258  1.00  0.00     0.031 H 
ATOM     18  H   UNL     1     -43.811  40.744  25.211  1.00  0.00     0.031 H 
ATOM     19  H   UNL     1     -44.861  38.692  26.262  1.00  0.00     0.049 H 
ATOM     20  H   UNL     1     -45.799  40.181  26.425  1.00  0.00     0.049 H 
ATOM     21  H   UNL     1     -44.323  43.573  27.741  1.00  0.00     0.052 H 
ATOM     22  H   UNL     1     -45.458  42.249  27.433  1.00  0.00     0.052 H 
ATOM     23  H   UNL     1     -43.516  44.021  24.131  1.00  0.00     0.060 H 
ATOM     24  H   UNL     1     -43.456  44.932  25.663  1.00  0.00     0.060 H 
ENDROOT
BRANCH   1  25
ATOM     25  C   UNL     1     -45.580  38.418  28.692  1.00  0.00     0.134 A 
ATOM     26  C   UNL     1     -47.304  36.798  28.492  1.00  0.00     0.131 A 
ATOM     27  C   UNL     1     -46.647  37.898  27.976  1.00  0.00     0.023 A 
ATOM     28  N   UNL     1     -46.932  36.220  29.636  1.00  0.00    -0.219 NA
ATOM     29  H   UNL     1     -46.962  38.337  27.040  1.00  0.00     0.070 H 
ATOM     30  C   UNL     1     -45.904  36.793  30.270  1.00  0.00     0.120 A 
ATOM     31  N   UNL     1     -45.217  37.868  29.862  1.00  0.00    -0.219 NA
ATOM     32  H   UNL     1     -45.594  36.343  31.206  1.00  0.00     0.106 H 
BRANCH  26  33
ATOM     33  N   UNL     1     -48.379  36.193  27.833  1.00  0.00    -0.373 N 
ATOM     34  H   UNL     1     -48.879  36.971  27.403  1.00  0.00     0.161 HD
BRANCH  33  35
ATOM     35  C   UNL     1     -47.996  35.195  26.847  1.00  0.00     0.005 C 
ATOM     36  H   UNL     1     -47.220  35.574  26.172  1.00  0.00     0.045 H 
ATOM     37  H   UNL     1     -48.871  34.939  26.240  1.00  0.00     0.045 H 
ATOM     38  H   UNL     1     -47.647  34.272  27.319  1.00  0.00     0.045 H 
ENDBRANCH  33  35
ENDBRANCH  26  33
ENDBRANCH   1  25
BRANCH  12  39
ATOM     39  C   UNL     1     -40.826  41.636  26.762  1.00  0.00     0.010 C 
ATOM     40  H   UNL     1     -40.403  41.458  25.768  1.00  0.00     0.046 H 
ATOM     41  H   UNL     1     -40.095  42.196  27.346  1.00  0.00     0.046 H 
ATOM     42  H   UNL     1     -41.004  40.667  27.241  1.00  0.00     0.046 H 
ENDBRANCH  12  39
BRANCH   8  43
ATOM     43  C   UNL     1     -45.887  43.843  25.355  1.00  0.00     0.037 A 
ATOM     44  C   UNL     1     -45.852  44.923  24.459  1.00  0.00    -0.038 A 
ATOM     45  C   UNL     1     -47.144  43.458  25.841  1.00  0.00    -0.038 A 
ATOM     46  C   UNL     1     -47.016  45.596  24.072  1.00  0.00    -0.056 A 
ATOM     47  H   UNL     1     -44.906  45.238  24.026  1.00  0.00     0.064 H 
ATOM     48  C   UNL     1     -48.315  44.130  25.460  1.00  0.00    -0.056 A 
ATOM     49  H   UNL     1     -47.246  42.638  26.546  1.00  0.00     0.064 H 
ATOM     50  C   UNL     1     -48.263  45.203  24.566  1.00  0.00    -0.034 A 
ATOM     51  H   UNL     1     -46.946  46.424  23.370  1.00  0.00     0.063 H 
ATOM     52  H   UNL     1     -49.267  43.801  25.872  1.00  0.00     0.063 H 
BRANCH  50  53
ATOM     53  C   UNL     1     -49.524  45.944  24.171  1.00  0.00     0.023 C 
ATOM     54  H   UNL     1     -50.229  45.177  23.821  1.00  0.00     0.048 H 
ATOM     55  H   UNL     1     -49.332  46.603  23.314  1.00  0.00     0.048 H 
BRANCH  53  56
ATOM     56  N   UNL     1     -50.125  46.711  25.272  1.00  0.00    -0.299 NA
ATOM     57  C   UNL     1     -49.117  47.019  26.296  1.00  0.00    -0.001 C 
ATOM     58  C   UNL     1     -51.344  46.089  25.813  1.00  0.00    -0.001 C 
ATOM     59  C   UNL     1     -49.761  47.497  27.597  1.00  0.00    -0.035 C 
ATOM     60  H   UNL     1     -48.485  46.146  26.508  1.00  0.00     0.043 H 
ATOM     61  H   UNL     1     -48.457  47.808  25.916  1.00  0.00     0.043 H 
ATOM     62  C   UNL     1     -51.136  45.403  27.164  1.00  0.00    -0.035 C 
ATOM     63  H   UNL     1     -51.787  45.369  25.115  1.00  0.00     0.043 H 
ATOM     64  H   UNL     1     -52.096  46.880  25.928  1.00  0.00     0.043 H 
ATOM     65  C   UNL     1     -50.628  46.388  28.244  1.00  0.00    -0.033 C 
ATOM     66  H   UNL     1     -48.982  47.834  28.292  1.00  0.00     0.029 H 
ATOM     67  H   UNL     1     -50.371  48.384  27.377  1.00  0.00     0.029 H 
ATOM     68  H   UNL     1     -50.421  44.581  27.027  1.00  0.00     0.029 H 
ATOM     69  H   UNL     1     -52.075  44.933  27.486  1.00  0.00     0.029 H 
BRANCH  65  70
ATOM     70  C   UNL     1     -51.815  47.040  28.974  1.00  0.00    -0.060 C 
ATOM     71  H   UNL     1     -51.497  47.489  29.922  1.00  0.00     0.024 H 
ATOM     72  H   UNL     1     -52.271  47.831  28.368  1.00  0.00     0.024 H 
ATOM     73  H   UNL     1     -52.595  46.304  29.199  1.00  0.00     0.024 H 
ENDBRANCH  65  70
BRANCH  65  74
ATOM     74  C   UNL     1     -49.798  45.607  29.280  1.00  0.00    -0.060 C 
ATOM     75  H   UNL     1     -50.343  44.730  29.647  1.00  0.00     0.024 H 
ATOM     76  H   UNL     1     -48.855  45.254  28.849  1.00  0.00     0.024 H 
ATOM     77  H   UNL     1     -49.555  46.236  30.144  1.00  0.00     0.024 H 
ENDBRANCH  65  74
ENDBRANCH  53  56
ENDBRANCH  50  53
ENDBRANCH   8  43
TORSDOF 9
ENDMDL
