MODEL 1
REMARK VINA RESULT:      -8.8      0.000      0.000
REMARK SMILES CN(C)CCNc1cc(C2CCC2)nc2cc(OCc3cncc(-n4ccc5c(N)ncnc54)c3)ccc12
REMARK SMILES IDX 7 1 8 2 9 3 14 4 15 5 16 6 17 7 36 8 37 9 38 10 6 15 5 17
REMARK SMILES IDX 4 20 2 23 1 24 3 28 10 32 11 33 13 34 12 36 18 43 19 44
REMARK SMILES IDX 20 47 21 48 35 49 22 50 24 52 23 54 25 56 26 57 34 58 27 59
REMARK SMILES IDX 28 61 33 62 29 64 32 65 31 66 30 68
REMARK H PARENT 8 11 16 12 36 13 37 14 6 16 5 18 5 19 4 21 4 22 1 25 1 26 1 27
REMARK H PARENT 3 29 3 30 3 31 10 35 11 37 11 38 13 39 13 40 12 41 12 42 19 45
REMARK H PARENT 19 46 21 51 35 53 23 55 26 60 27 63 32 67 30 69 30 70
REMARK Flexibility Score: inf
ROOT
ATOM      1  C   UNL     1     -47.428  31.341  24.159  1.00  0.00     0.045 A 
ATOM      2  C   UNL     1     -48.684  30.946  23.690  1.00  0.00    -0.016 A 
ATOM      3  C   UNL     1     -49.844  31.579  24.126  1.00  0.00     0.046 A 
ATOM      4  N   UNL     1     -49.789  32.584  25.028  1.00  0.00    -0.252 NA
ATOM      5  C   UNL     1     -48.605  32.951  25.538  1.00  0.00     0.076 A 
ATOM      6  C   UNL     1     -48.594  33.961  26.492  1.00  0.00     0.007 A 
ATOM      7  C   UNL     1     -47.418  34.400  27.105  1.00  0.00     0.122 A 
ATOM      8  C   UNL     1     -46.214  33.806  26.755  1.00  0.00    -0.019 A 
ATOM      9  C   UNL     1     -46.200  32.793  25.793  1.00  0.00    -0.047 A 
ATOM     10  C   UNL     1     -47.386  32.354  25.155  1.00  0.00     0.024 A 
ATOM     11  H   UNL     1     -48.785  30.150  22.964  1.00  0.00     0.066 H 
ATOM     12  H   UNL     1     -49.540  34.417  26.773  1.00  0.00     0.069 H 
ATOM     13  H   UNL     1     -45.271  34.097  27.205  1.00  0.00     0.066 H 
ATOM     14  H   UNL     1     -45.245  32.332  25.554  1.00  0.00     0.063 H 
ENDROOT
BRANCH   1  15
ATOM     15  N   UNL     1     -46.239  30.704  23.754  1.00  0.00    -0.383 N 
ATOM     16  H   UNL     1     -45.477  31.375  23.688  1.00  0.00     0.160 HD
BRANCH  15  17
ATOM     17  C   UNL     1     -46.207  29.748  22.643  1.00  0.00     0.027 C 
ATOM     18  H   UNL     1     -45.415  30.068  21.953  1.00  0.00     0.050 H 
ATOM     19  H   UNL     1     -47.137  29.788  22.067  1.00  0.00     0.050 H 
BRANCH  17  20
ATOM     20  C   UNL     1     -45.862  28.326  23.137  1.00  0.00     0.015 C 
ATOM     21  H   UNL     1     -44.821  28.271  23.480  1.00  0.00     0.045 H 
ATOM     22  H   UNL     1     -45.926  27.665  22.261  1.00  0.00     0.045 H 
BRANCH  20  23
ATOM     23  N   UNL     1     -46.777  27.822  24.185  1.00  0.00    -0.308 NA
BRANCH  23  24
ATOM     24  C   UNL     1     -48.095  27.550  23.601  1.00  0.00    -0.014 C 
ATOM     25  H   UNL     1     -48.426  26.536  23.853  1.00  0.00     0.039 H 
ATOM     26  H   UNL     1     -48.049  27.598  22.508  1.00  0.00     0.039 H 
ATOM     27  H   UNL     1     -48.855  28.259  23.947  1.00  0.00     0.039 H 
ENDBRANCH  23  24
BRANCH  23  28
ATOM     28  C   UNL     1     -46.260  26.603  24.813  1.00  0.00    -0.014 C 
ATOM     29  H   UNL     1     -45.477  26.144  24.202  1.00  0.00     0.039 H 
ATOM     30  H   UNL     1     -47.046  25.860  24.983  1.00  0.00     0.039 H 
ATOM     31  H   UNL     1     -45.794  26.838  25.776  1.00  0.00     0.039 H 
ENDBRANCH  23  28
ENDBRANCH  20  23
ENDBRANCH  17  20
ENDBRANCH  15  17
ENDBRANCH   1  15
BRANCH   3  32
ATOM     32  C   UNL     1     -51.316  31.249  23.653  1.00  0.00     0.001 C 
ATOM     33  C   UNL     1     -51.624  31.046  22.143  1.00  0.00    -0.045 C 
ATOM     34  C   UNL     1     -52.337  32.422  23.612  1.00  0.00    -0.045 C 
ATOM     35  H   UNL     1     -51.707  30.403  24.237  1.00  0.00     0.037 H 
ATOM     36  C   UNL     1     -52.112  32.505  22.092  1.00  0.00    -0.052 C 
ATOM     37  H   UNL     1     -52.419  30.313  21.957  1.00  0.00     0.027 H 
ATOM     38  H   UNL     1     -50.780  30.806  21.490  1.00  0.00     0.027 H 
ATOM     39  H   UNL     1     -53.354  32.124  23.891  1.00  0.00     0.027 H 
ATOM     40  H   UNL     1     -52.069  33.322  24.173  1.00  0.00     0.027 H 
ATOM     41  H   UNL     1     -51.340  33.224  21.797  1.00  0.00     0.027 H 
ATOM     42  H   UNL     1     -53.007  32.683  21.490  1.00  0.00     0.027 H 
ENDBRANCH   3  32
BRANCH   7  43
ATOM     43  O   UNL     1     -47.589  35.398  28.024  1.00  0.00    -0.489 OA
BRANCH  43  44
ATOM     44  C   UNL     1     -46.418  36.072  28.483  1.00  0.00     0.115 C 
ATOM     45  H   UNL     1     -45.540  35.659  27.975  1.00  0.00     0.076 H 
ATOM     46  H   UNL     1     -46.308  35.960  29.569  1.00  0.00     0.076 H 
BRANCH  44  47
ATOM     47  C   UNL     1     -46.535  37.541  28.173  1.00  0.00     0.010 A 
ATOM     48  C   UNL     1     -47.772  38.170  28.127  1.00  0.00     0.034 A 
ATOM     49  C   UNL     1     -45.396  38.337  27.977  1.00  0.00    -0.028 A 
ATOM     50  N   UNL     1     -47.935  39.490  27.895  1.00  0.00    -0.262 NA
ATOM     51  H   UNL     1     -48.694  37.615  28.280  1.00  0.00     0.084 H 
ATOM     52  C   UNL     1     -45.518  39.707  27.727  1.00  0.00     0.066 A 
ATOM     53  H   UNL     1     -44.429  37.846  28.009  1.00  0.00     0.065 H 
ATOM     54  C   UNL     1     -46.812  40.223  27.698  1.00  0.00     0.051 A 
ATOM     55  H   UNL     1     -47.032  41.270  27.529  1.00  0.00     0.086 H 
BRANCH  52  56
ATOM     56  N   UNL     1     -44.384  40.556  27.511  1.00  0.00    -0.300 N 
ATOM     57  C   UNL     1     -43.294  40.665  28.365  1.00  0.00     0.012 A 
ATOM     58  C   UNL     1     -44.147  41.421  26.435  1.00  0.00     0.150 A 
ATOM     59  C   UNL     1     -42.393  41.572  27.856  1.00  0.00    -0.031 A 
ATOM     60  H   UNL     1     -43.229  40.104  29.286  1.00  0.00     0.082 H 
ATOM     61  C   UNL     1     -42.924  42.057  26.639  1.00  0.00     0.061 A 
ATOM     62  N   UNL     1     -44.938  41.617  25.360  1.00  0.00    -0.218 NA
ATOM     63  H   UNL     1     -41.453  41.850  28.311  1.00  0.00     0.065 H 
ATOM     64  C   UNL     1     -42.501  42.970  25.662  1.00  0.00     0.136 A 
ATOM     65  C   UNL     1     -44.430  42.506  24.495  1.00  0.00     0.120 A 
ATOM     66  N   UNL     1     -43.278  43.189  24.588  1.00  0.00    -0.219 NA
ATOM     67  H   UNL     1     -45.025  42.703  23.607  1.00  0.00     0.106 H 
BRANCH  64  68
ATOM     68  N   UNL     1     -41.315  43.686  25.743  1.00  0.00    -0.383 N 
ATOM     69  H   UNL     1     -40.522  43.252  25.292  1.00  0.00     0.158 HD
ATOM     70  H   UNL     1     -41.165  44.024  26.687  1.00  0.00     0.158 HD
ENDBRANCH  64  68
ENDBRANCH  52  56
ENDBRANCH  44  47
ENDBRANCH  43  44
ENDBRANCH   7  43
TORSDOF 12
ENDMDL
MODEL 2
REMARK VINA RESULT:      -8.8      2.219      3.054
REMARK SMILES CN(C)CCNc1cc(C2CCC2)nc2cc(OCc3cncc(-n4ccc5c(N)ncnc54)c3)ccc12
REMARK SMILES IDX 7 1 8 2 9 3 14 4 15 5 16 6 17 7 36 8 37 9 38 10 6 15 5 17
REMARK SMILES IDX 4 20 2 23 1 24 3 28 10 32 11 33 13 34 12 36 18 43 19 44
REMARK SMILES IDX 20 47 21 48 35 49 22 50 24 52 23 54 25 56 26 57 34 58 27 59
REMARK SMILES IDX 28 61 33 62 29 64 32 65 31 66 30 68
REMARK H PARENT 8 11 16 12 36 13 37 14 6 16 5 18 5 19 4 21 4 22 1 25 1 26 1 27
REMARK H PARENT 3 29 3 30 3 31 10 35 11 37 11 38 13 39 13 40 12 41 12 42 19 45
REMARK H PARENT 19 46 21 51 35 53 23 55 26 60 27 63 32 67 30 69 30 70
REMARK Flexibility Score: inf
ROOT
ATOM      1  C   UNL     1     -47.915  30.212  24.586  1.00  0.00     0.045 A 
ATOM      2  C   UNL     1     -47.627  29.961  23.242  1.00  0.00    -0.016 A 
ATOM      3  C   UNL     1     -46.905  30.876  22.480  1.00  0.00     0.046 A 
ATOM      4  N   UNL     1     -46.476  32.039  23.017  1.00  0.00    -0.252 NA
ATOM      5  C   UNL     1     -46.782  32.335  24.289  1.00  0.00     0.076 A 
ATOM      6  C   UNL     1     -46.357  33.558  24.792  1.00  0.00     0.007 A 
ATOM      7  C   UNL     1     -46.645  33.973  26.094  1.00  0.00     0.122 A 
ATOM      8  C   UNL     1     -47.386  33.139  26.919  1.00  0.00    -0.019 A 
ATOM      9  C   UNL     1     -47.818  31.901  26.436  1.00  0.00    -0.047 A 
ATOM     10  C   UNL     1     -47.516  31.466  25.122  1.00  0.00     0.024 A 
ATOM     11  H   UNL     1     -47.943  29.043  22.764  1.00  0.00     0.066 H 
ATOM     12  H   UNL     1     -45.785  34.215  24.140  1.00  0.00     0.069 H 
ATOM     13  H   UNL     1     -47.650  33.412  27.934  1.00  0.00     0.066 H 
ATOM     14  H   UNL     1     -48.415  31.278  27.098  1.00  0.00     0.063 H 
ENDROOT
BRANCH   1  15
ATOM     15  N   UNL     1     -48.664  29.317  25.374  1.00  0.00    -0.383 N 
ATOM     16  H   UNL     1     -48.607  29.571  26.358  1.00  0.00     0.160 HD
BRANCH  15  17
ATOM     17  C   UNL     1     -48.583  27.864  25.193  1.00  0.00     0.027 C 
ATOM     18  H   UNL     1     -48.897  27.394  26.135  1.00  0.00     0.050 H 
ATOM     19  H   UNL     1     -47.547  27.547  25.034  1.00  0.00     0.050 H 
BRANCH  17  20
ATOM     20  C   UNL     1     -49.540  27.384  24.080  1.00  0.00     0.015 C 
ATOM     21  H   UNL     1     -48.983  26.923  23.255  1.00  0.00     0.045 H 
ATOM     22  H   UNL     1     -50.009  28.285  23.660  1.00  0.00     0.045 H 
BRANCH  20  23
ATOM     23  N   UNL     1     -50.600  26.471  24.560  1.00  0.00    -0.308 NA
BRANCH  23  24
ATOM     24  C   UNL     1     -50.261  25.981  25.901  1.00  0.00    -0.014 C 
ATOM     25  H   UNL     1     -51.152  25.957  26.539  1.00  0.00     0.039 H 
ATOM     26  H   UNL     1     -49.549  26.657  26.388  1.00  0.00     0.039 H 
ATOM     27  H   UNL     1     -49.823  24.978  25.877  1.00  0.00     0.039 H 
ENDBRANCH  23  24
BRANCH  23  28
ATOM     28  C   UNL     1     -51.907  27.133  24.599  1.00  0.00    -0.014 C 
ATOM     29  H   UNL     1     -51.803  28.205  24.793  1.00  0.00     0.039 H 
ATOM     30  H   UNL     1     -52.565  26.706  25.363  1.00  0.00     0.039 H 
ATOM     31  H   UNL     1     -52.407  27.049  23.628  1.00  0.00     0.039 H 
ENDBRANCH  23  28
ENDBRANCH  20  23
ENDBRANCH  17  20
ENDBRANCH  15  17
ENDBRANCH   1  15
BRANCH   3  32
ATOM     32  C   UNL     1     -46.489  30.699  20.966  1.00  0.00     0.001 C 
ATOM     33  C   UNL     1     -45.935  31.908  20.162  1.00  0.00    -0.045 C 
ATOM     34  C   UNL     1     -47.631  30.635  19.911  1.00  0.00    -0.045 C 
ATOM     35  H   UNL     1     -45.813  29.837  20.870  1.00  0.00     0.037 H 
ATOM     36  C   UNL     1     -47.345  32.111  19.579  1.00  0.00    -0.052 C 
ATOM     37  H   UNL     1     -45.189  31.624  19.410  1.00  0.00     0.027 H 
ATOM     38  H   UNL     1     -45.535  32.748  20.737  1.00  0.00     0.027 H 
ATOM     39  H   UNL     1     -47.421  29.950  19.082  1.00  0.00     0.027 H 
ATOM     40  H   UNL     1     -48.635  30.429  20.291  1.00  0.00     0.027 H 
ATOM     41  H   UNL     1     -47.963  32.819  20.142  1.00  0.00     0.027 H 
ATOM     42  H   UNL     1     -47.385  32.374  18.519  1.00  0.00     0.027 H 
ENDBRANCH   3  32
BRANCH   7  43
ATOM     43  O   UNL     1     -46.154  35.206  26.423  1.00  0.00    -0.489 OA
BRANCH  43  44
ATOM     44  C   UNL     1     -47.039  36.105  27.091  1.00  0.00     0.115 C 
ATOM     45  H   UNL     1     -47.844  35.534  27.568  1.00  0.00     0.076 H 
ATOM     46  H   UNL     1     -47.463  36.828  26.383  1.00  0.00     0.076 H 
BRANCH  44  47
ATOM     47  C   UNL     1     -46.274  36.869  28.139  1.00  0.00     0.010 A 
ATOM     48  C   UNL     1     -46.249  36.448  29.462  1.00  0.00     0.034 A 
ATOM     49  C   UNL     1     -45.513  38.000  27.805  1.00  0.00    -0.028 A 
ATOM     50  N   UNL     1     -45.549  37.068  30.435  1.00  0.00    -0.262 NA
ATOM     51  H   UNL     1     -46.808  35.574  29.787  1.00  0.00     0.084 H 
ATOM     52  C   UNL     1     -44.777  38.678  28.782  1.00  0.00     0.066 A 
ATOM     53  H   UNL     1     -45.533  38.332  26.773  1.00  0.00     0.065 H 
ATOM     54  C   UNL     1     -44.836  38.165  30.075  1.00  0.00     0.051 A 
ATOM     55  H   UNL     1     -44.298  38.594  30.913  1.00  0.00     0.086 H 
BRANCH  52  56
ATOM     56  N   UNL     1     -43.995  39.843  28.489  1.00  0.00    -0.300 N 
ATOM     57  C   UNL     1     -42.991  40.356  29.302  1.00  0.00     0.012 A 
ATOM     58  C   UNL     1     -44.076  40.676  27.367  1.00  0.00     0.150 A 
ATOM     59  C   UNL     1     -42.453  41.480  28.721  1.00  0.00    -0.031 A 
ATOM     60  H   UNL     1     -42.730  39.900  30.245  1.00  0.00     0.082 H 
ATOM     61  C   UNL     1     -43.133  41.693  27.500  1.00  0.00     0.061 A 
ATOM     62  N   UNL     1     -44.902  40.537  26.309  1.00  0.00    -0.218 NA
ATOM     63  H   UNL     1     -41.653  42.081  29.132  1.00  0.00     0.065 H 
ATOM     64  C   UNL     1     -43.053  42.639  26.468  1.00  0.00     0.136 A 
ATOM     65  C   UNL     1     -44.733  41.495  25.386  1.00  0.00     0.120 A 
ATOM     66  N   UNL     1     -43.874  42.527  25.411  1.00  0.00    -0.219 NA
ATOM     67  H   UNL     1     -45.372  41.433  24.510  1.00  0.00     0.106 H 
BRANCH  64  68
ATOM     68  N   UNL     1     -42.174  43.712  26.476  1.00  0.00    -0.383 N 
ATOM     69  H   UNL     1     -41.230  43.490  26.760  1.00  0.00     0.158 HD
ATOM     70  H   UNL     1     -42.598  44.519  26.921  1.00  0.00     0.158 HD
ENDBRANCH  64  68
ENDBRANCH  52  56
ENDBRANCH  44  47
ENDBRANCH  43  44
ENDBRANCH   7  43
TORSDOF 12
ENDMDL
MODEL 3
REMARK VINA RESULT:      -8.5      2.224      3.224
REMARK SMILES CN(C)CCNc1cc(C2CCC2)nc2cc(OCc3cncc(-n4ccc5c(N)ncnc54)c3)ccc12
REMARK SMILES IDX 7 1 8 2 9 3 14 4 15 5 16 6 17 7 36 8 37 9 38 10 6 15 5 17
REMARK SMILES IDX 4 20 2 23 1 24 3 28 10 32 11 33 13 34 12 36 18 43 19 44
REMARK SMILES IDX 20 47 21 48 35 49 22 50 24 52 23 54 25 56 26 57 34 58 27 59
REMARK SMILES IDX 28 61 33 62 29 64 32 65 31 66 30 68
REMARK H PARENT 8 11 16 12 36 13 37 14 6 16 5 18 5 19 4 21 4 22 1 25 1 26 1 27
REMARK H PARENT 3 29 3 30 3 31 10 35 11 37 11 38 13 39 13 40 12 41 12 42 19 45
REMARK H PARENT 19 46 21 51 35 53 23 55 26 60 27 63 32 67 30 69 30 70
REMARK Flexibility Score: inf
ROOT
ATOM      1  C   UNL     1     -48.617  29.677  24.266  1.00  0.00     0.045 A 
ATOM      2  C   UNL     1     -48.534  29.606  22.873  1.00  0.00    -0.016 A 
ATOM      3  C   UNL     1     -47.771  30.521  22.153  1.00  0.00     0.046 A 
ATOM      4  N   UNL     1     -47.101  31.512  22.781  1.00  0.00    -0.252 NA
ATOM      5  C   UNL     1     -47.202  31.640  24.112  1.00  0.00     0.076 A 
ATOM      6  C   UNL     1     -46.530  32.695  24.715  1.00  0.00     0.007 A 
ATOM      7  C   UNL     1     -46.592  32.934  26.090  1.00  0.00     0.122 A 
ATOM      8  C   UNL     1     -47.353  32.091  26.886  1.00  0.00    -0.019 A 
ATOM      9  C   UNL     1     -48.032  31.019  26.302  1.00  0.00    -0.047 A 
ATOM     10  C   UNL     1     -47.962  30.761  24.911  1.00  0.00     0.024 A 
ATOM     11  H   UNL     1     -49.047  28.830  22.321  1.00  0.00     0.066 H 
ATOM     12  H   UNL     1     -45.943  33.362  24.088  1.00  0.00     0.069 H 
ATOM     13  H   UNL     1     -47.448  32.233  27.957  1.00  0.00     0.066 H 
ATOM     14  H   UNL     1     -48.637  30.388  26.947  1.00  0.00     0.063 H 
ENDROOT
BRANCH   1  15
ATOM     15  N   UNL     1     -49.400  28.781  25.020  1.00  0.00    -0.383 N 
ATOM     16  H   UNL     1     -49.773  29.240  25.849  1.00  0.00     0.160 HD
BRANCH  15  17
ATOM     17  C   UNL     1     -48.952  27.418  25.320  1.00  0.00     0.027 C 
ATOM     18  H   UNL     1     -48.221  27.132  24.553  1.00  0.00     0.050 H 
ATOM     19  H   UNL     1     -49.778  26.705  25.225  1.00  0.00     0.050 H 
BRANCH  17  20
ATOM     20  C   UNL     1     -48.250  27.350  26.695  1.00  0.00     0.015 C 
ATOM     21  H   UNL     1     -48.982  27.387  27.512  1.00  0.00     0.045 H 
ATOM     22  H   UNL     1     -47.650  28.266  26.786  1.00  0.00     0.045 H 
BRANCH  20  23
ATOM     23  N   UNL     1     -47.362  26.177  26.851  1.00  0.00    -0.308 NA
BRANCH  23  24
ATOM     24  C   UNL     1     -47.133  25.553  25.544  1.00  0.00    -0.014 C 
ATOM     25  H   UNL     1     -47.754  24.656  25.431  1.00  0.00     0.039 H 
ATOM     26  H   UNL     1     -46.092  25.222  25.452  1.00  0.00     0.039 H 
ATOM     27  H   UNL     1     -47.354  26.234  24.715  1.00  0.00     0.039 H 
ENDBRANCH  23  24
BRANCH  23  28
ATOM     28  C   UNL     1     -46.075  26.550  27.445  1.00  0.00    -0.014 C 
ATOM     29  H   UNL     1     -46.153  26.643  28.533  1.00  0.00     0.039 H 
ATOM     30  H   UNL     1     -45.692  27.495  27.044  1.00  0.00     0.039 H 
ATOM     31  H   UNL     1     -45.328  25.770  27.261  1.00  0.00     0.039 H 
ENDBRANCH  23  28
ENDBRANCH  20  23
ENDBRANCH  17  20
ENDBRANCH  15  17
ENDBRANCH   1  15
BRANCH   3  32
ATOM     32  C   UNL     1     -47.572  30.532  20.585  1.00  0.00     0.001 C 
ATOM     33  C   UNL     1     -47.367  31.877  19.833  1.00  0.00    -0.045 C 
ATOM     34  C   UNL     1     -48.835  30.332  19.699  1.00  0.00    -0.045 C 
ATOM     35  H   UNL     1     -46.780  29.819  20.311  1.00  0.00     0.037 H 
ATOM     36  C   UNL     1     -48.864  31.855  19.476  1.00  0.00    -0.052 C 
ATOM     37  H   UNL     1     -46.709  31.789  18.959  1.00  0.00     0.027 H 
ATOM     38  H   UNL     1     -47.034  32.733  20.425  1.00  0.00     0.027 H 
ATOM     39  H   UNL     1     -48.642  29.757  18.787  1.00  0.00     0.027 H 
ATOM     40  H   UNL     1     -49.717  29.917  20.194  1.00  0.00     0.027 H 
ATOM     41  H   UNL     1     -49.500  32.394  20.187  1.00  0.00     0.027 H 
ATOM     42  H   UNL     1     -49.113  32.180  18.463  1.00  0.00     0.027 H 
ENDBRANCH   3  32
BRANCH   7  43
ATOM     43  O   UNL     1     -45.875  34.017  26.515  1.00  0.00    -0.489 OA
BRANCH  43  44
ATOM     44  C   UNL     1     -46.072  34.444  27.863  1.00  0.00     0.115 C 
ATOM     45  H   UNL     1     -45.117  34.403  28.400  1.00  0.00     0.076 H 
ATOM     46  H   UNL     1     -46.810  33.806  28.366  1.00  0.00     0.076 H 
BRANCH  44  47
ATOM     47  C   UNL     1     -46.593  35.857  27.868  1.00  0.00     0.010 A 
ATOM     48  C   UNL     1     -47.913  36.135  28.197  1.00  0.00     0.034 A 
ATOM     49  C   UNL     1     -45.749  36.945  27.596  1.00  0.00    -0.028 A 
ATOM     50  N   UNL     1     -48.425  37.383  28.257  1.00  0.00    -0.262 NA
ATOM     51  H   UNL     1     -48.618  35.341  28.427  1.00  0.00     0.084 H 
ATOM     52  C   UNL     1     -46.238  38.254  27.642  1.00  0.00     0.066 A 
ATOM     53  H   UNL     1     -44.719  36.729  27.337  1.00  0.00     0.065 H 
ATOM     54  C   UNL     1     -47.582  38.407  27.976  1.00  0.00     0.051 A 
ATOM     55  H   UNL     1     -48.070  39.371  28.058  1.00  0.00     0.086 H 
BRANCH  52  56
ATOM     56  N   UNL     1     -45.416  39.395  27.362  1.00  0.00    -0.300 N 
ATOM     57  C   UNL     1     -45.549  40.222  26.253  1.00  0.00     0.012 A 
ATOM     58  C   UNL     1     -44.348  39.893  28.117  1.00  0.00     0.150 A 
ATOM     59  C   UNL     1     -44.596  41.212  26.296  1.00  0.00    -0.031 A 
ATOM     60  H   UNL     1     -46.302  40.050  25.498  1.00  0.00     0.082 H 
ATOM     61  C   UNL     1     -43.830  41.012  27.467  1.00  0.00     0.061 A 
ATOM     62  N   UNL     1     -43.883  39.410  29.287  1.00  0.00    -0.218 NA
ATOM     63  H   UNL     1     -44.469  41.996  25.563  1.00  0.00     0.065 H 
ATOM     64  C   UNL     1     -42.744  41.664  28.070  1.00  0.00     0.136 A 
ATOM     65  C   UNL     1     -42.849  40.114  29.769  1.00  0.00     0.120 A 
ATOM     66  N   UNL     1     -42.259  41.193  29.230  1.00  0.00    -0.219 NA
ATOM     67  H   UNL     1     -42.435  39.770  30.712  1.00  0.00     0.106 H 
BRANCH  64  68
ATOM     68  N   UNL     1     -42.120  42.778  27.527  1.00  0.00    -0.383 N 
ATOM     69  H   UNL     1     -41.484  42.585  26.767  1.00  0.00     0.158 HD
ATOM     70  H   UNL     1     -41.773  43.386  28.261  1.00  0.00     0.158 HD
ENDBRANCH  64  68
ENDBRANCH  52  56
ENDBRANCH  44  47
ENDBRANCH  43  44
ENDBRANCH   7  43
TORSDOF 12
ENDMDL
MODEL 4
REMARK VINA RESULT:      -8.4      2.365     11.591
REMARK SMILES CN(C)CCNc1cc(C2CCC2)nc2cc(OCc3cncc(-n4ccc5c(N)ncnc54)c3)ccc12
REMARK SMILES IDX 7 1 8 2 9 3 14 4 15 5 16 6 17 7 36 8 37 9 38 10 6 15 5 17
REMARK SMILES IDX 4 20 2 23 1 24 3 28 10 32 11 33 13 34 12 36 18 43 19 44
REMARK SMILES IDX 20 47 21 48 35 49 22 50 24 52 23 54 25 56 26 57 34 58 27 59
REMARK SMILES IDX 28 61 33 62 29 64 32 65 31 66 30 68
REMARK H PARENT 8 11 16 12 36 13 37 14 6 16 5 18 5 19 4 21 4 22 1 25 1 26 1 27
REMARK H PARENT 3 29 3 30 3 31 10 35 11 37 11 38 13 39 13 40 12 41 12 42 19 45
REMARK H PARENT 19 46 21 51 35 53 23 55 26 60 27 63 32 67 30 69 30 70
REMARK Flexibility Score: inf
ROOT
ATOM      1  C   UNL     1     -46.256  38.642  28.750  1.00  0.00     0.045 A 
ATOM      2  C   UNL     1     -47.300  39.554  28.573  1.00  0.00    -0.016 A 
ATOM      3  C   UNL     1     -48.540  39.140  28.094  1.00  0.00     0.046 A 
ATOM      4  N   UNL     1     -48.763  37.847  27.773  1.00  0.00    -0.252 NA
ATOM      5  C   UNL     1     -47.766  36.956  27.880  1.00  0.00     0.076 A 
ATOM      6  C   UNL     1     -48.024  35.645  27.502  1.00  0.00     0.007 A 
ATOM      7  C   UNL     1     -47.048  34.647  27.549  1.00  0.00     0.122 A 
ATOM      8  C   UNL     1     -45.773  34.972  27.987  1.00  0.00    -0.019 A 
ATOM      9  C   UNL     1     -45.492  36.284  28.379  1.00  0.00    -0.047 A 
ATOM     10  C   UNL     1     -46.481  37.298  28.348  1.00  0.00     0.024 A 
ATOM     11  H   UNL     1     -47.178  40.600  28.819  1.00  0.00     0.066 H 
ATOM     12  H   UNL     1     -49.021  35.394  27.149  1.00  0.00     0.069 H 
ATOM     13  H   UNL     1     -44.971  34.242  28.035  1.00  0.00     0.066 H 
ATOM     14  H   UNL     1     -44.479  36.514  28.697  1.00  0.00     0.063 H 
ENDROOT
BRANCH   1  15
ATOM     15  N   UNL     1     -44.984  39.035  29.210  1.00  0.00    -0.383 N 
ATOM     16  H   UNL     1     -45.019  39.276  30.199  1.00  0.00     0.160 HD
BRANCH  15  17
ATOM     17  C   UNL     1     -44.141  39.974  28.462  1.00  0.00     0.027 C 
ATOM     18  H   UNL     1     -43.191  39.467  28.248  1.00  0.00     0.050 H 
ATOM     19  H   UNL     1     -43.883  40.842  29.077  1.00  0.00     0.050 H 
BRANCH  17  20
ATOM     20  C   UNL     1     -44.791  40.358  27.114  1.00  0.00     0.015 C 
ATOM     21  H   UNL     1     -45.846  40.055  27.087  1.00  0.00     0.045 H 
ATOM     22  H   UNL     1     -44.287  39.761  26.342  1.00  0.00     0.045 H 
BRANCH  20  23
ATOM     23  N   UNL     1     -44.657  41.792  26.777  1.00  0.00    -0.308 NA
BRANCH  23  24
ATOM     24  C   UNL     1     -43.422  42.324  27.362  1.00  0.00    -0.014 C 
ATOM     25  H   UNL     1     -43.650  43.053  28.148  1.00  0.00     0.039 H 
ATOM     26  H   UNL     1     -42.837  42.857  26.605  1.00  0.00     0.039 H 
ATOM     27  H   UNL     1     -42.794  41.536  27.791  1.00  0.00     0.039 H 
ENDBRANCH  23  24
BRANCH  23  28
ATOM     28  C   UNL     1     -44.643  42.006  25.328  1.00  0.00    -0.014 C 
ATOM     29  H   UNL     1     -43.738  41.590  24.874  1.00  0.00     0.039 H 
ATOM     30  H   UNL     1     -44.704  43.068  25.065  1.00  0.00     0.039 H 
ATOM     31  H   UNL     1     -45.484  41.487  24.856  1.00  0.00     0.039 H 
ENDBRANCH  23  28
ENDBRANCH  20  23
ENDBRANCH  17  20
ENDBRANCH  15  17
ENDBRANCH   1  15
BRANCH   3  32
ATOM     32  C   UNL     1     -49.806  40.062  27.878  1.00  0.00     0.001 C 
ATOM     33  C   UNL     1     -50.193  41.122  28.947  1.00  0.00    -0.045 C 
ATOM     34  C   UNL     1     -51.205  39.429  28.127  1.00  0.00    -0.045 C 
ATOM     35  H   UNL     1     -49.753  40.528  26.882  1.00  0.00     0.037 H 
ATOM     36  C   UNL     1     -51.223  40.121  29.502  1.00  0.00    -0.052 C 
ATOM     37  H   UNL     1     -50.648  42.023  28.518  1.00  0.00     0.027 H 
ATOM     38  H   UNL     1     -49.412  41.434  29.645  1.00  0.00     0.027 H 
ATOM     39  H   UNL     1     -51.978  39.795  27.441  1.00  0.00     0.027 H 
ATOM     40  H   UNL     1     -51.250  38.337  28.154  1.00  0.00     0.027 H 
ATOM     41  H   UNL     1     -50.843  39.496  30.317  1.00  0.00     0.027 H 
ATOM     42  H   UNL     1     -52.182  40.549  29.805  1.00  0.00     0.027 H 
ENDBRANCH   3  32
BRANCH   7  43
ATOM     43  O   UNL     1     -47.471  33.413  27.137  1.00  0.00    -0.489 OA
BRANCH  43  44
ATOM     44  C   UNL     1     -48.360  33.366  26.022  1.00  0.00     0.115 C 
ATOM     45  H   UNL     1     -48.458  34.369  25.594  1.00  0.00     0.076 H 
ATOM     46  H   UNL     1     -49.345  32.993  26.329  1.00  0.00     0.076 H 
BRANCH  44  47
ATOM     47  C   UNL     1     -47.807  32.425  24.984  1.00  0.00     0.010 A 
ATOM     48  C   UNL     1     -46.449  32.390  24.696  1.00  0.00     0.034 A 
ATOM     49  C   UNL     1     -48.636  31.513  24.313  1.00  0.00    -0.028 A 
ATOM     50  N   UNL     1     -45.892  31.541  23.807  1.00  0.00    -0.262 NA
ATOM     51  H   UNL     1     -45.750  33.062  25.187  1.00  0.00     0.084 H 
ATOM     52  C   UNL     1     -48.103  30.619  23.379  1.00  0.00     0.066 A 
ATOM     53  H   UNL     1     -49.697  31.541  24.535  1.00  0.00     0.065 H 
ATOM     54  C   UNL     1     -46.727  30.683  23.169  1.00  0.00     0.051 A 
ATOM     55  H   UNL     1     -46.198  30.033  22.483  1.00  0.00     0.086 H 
BRANCH  52  56
ATOM     56  N   UNL     1     -48.912  29.678  22.663  1.00  0.00    -0.300 N 
ATOM     57  C   UNL     1     -49.084  29.660  21.284  1.00  0.00     0.012 A 
ATOM     58  C   UNL     1     -49.671  28.622  23.182  1.00  0.00     0.150 A 
ATOM     59  C   UNL     1     -49.927  28.630  20.935  1.00  0.00    -0.031 A 
ATOM     60  H   UNL     1     -48.610  30.383  20.638  1.00  0.00     0.082 H 
ATOM     61  C   UNL     1     -50.305  27.970  22.126  1.00  0.00     0.061 A 
ATOM     62  N   UNL     1     -49.777  28.257  24.477  1.00  0.00    -0.218 NA
ATOM     63  H   UNL     1     -50.233  28.380  19.929  1.00  0.00     0.065 H 
ATOM     64  C   UNL     1     -51.119  26.872  22.441  1.00  0.00     0.136 A 
ATOM     65  C   UNL     1     -50.576  27.195  24.655  1.00  0.00     0.120 A 
ATOM     66  N   UNL     1     -51.248  26.498  23.725  1.00  0.00    -0.219 NA
ATOM     67  H   UNL     1     -50.698  26.856  25.679  1.00  0.00     0.106 H 
BRANCH  64  68
ATOM     68  N   UNL     1     -51.822  26.142  21.494  1.00  0.00    -0.383 N 
ATOM     69  H   UNL     1     -52.692  26.557  21.193  1.00  0.00     0.158 HD
ATOM     70  H   UNL     1     -51.857  25.162  21.753  1.00  0.00     0.158 HD
ENDBRANCH  64  68
ENDBRANCH  52  56
ENDBRANCH  44  47
ENDBRANCH  43  44
ENDBRANCH   7  43
TORSDOF 12
ENDMDL
MODEL 5
REMARK VINA RESULT:      -8.4      1.974      3.256
REMARK SMILES CN(C)CCNc1cc(C2CCC2)nc2cc(OCc3cncc(-n4ccc5c(N)ncnc54)c3)ccc12
REMARK SMILES IDX 7 1 8 2 9 3 14 4 15 5 16 6 17 7 36 8 37 9 38 10 6 15 5 17
REMARK SMILES IDX 4 20 2 23 1 24 3 28 10 32 11 33 13 34 12 36 18 43 19 44
REMARK SMILES IDX 20 47 21 48 35 49 22 50 24 52 23 54 25 56 26 57 34 58 27 59
REMARK SMILES IDX 28 61 33 62 29 64 32 65 31 66 30 68
REMARK H PARENT 8 11 16 12 36 13 37 14 6 16 5 18 5 19 4 21 4 22 1 25 1 26 1 27
REMARK H PARENT 3 29 3 30 3 31 10 35 11 37 11 38 13 39 13 40 12 41 12 42 19 45
REMARK H PARENT 19 46 21 51 35 53 23 55 26 60 27 63 32 67 30 69 30 70
REMARK Flexibility Score: inf
ROOT
ATOM      1  C   UNL     1     -47.538  30.646  23.274  1.00  0.00     0.045 A 
ATOM      2  C   UNL     1     -48.200  29.476  23.655  1.00  0.00    -0.016 A 
ATOM      3  C   UNL     1     -48.667  29.308  24.956  1.00  0.00     0.046 A 
ATOM      4  N   UNL     1     -48.478  30.267  25.890  1.00  0.00    -0.252 NA
ATOM      5  C   UNL     1     -47.801  31.379  25.570  1.00  0.00     0.076 A 
ATOM      6  C   UNL     1     -47.594  32.323  26.568  1.00  0.00     0.007 A 
ATOM      7  C   UNL     1     -46.878  33.502  26.347  1.00  0.00     0.122 A 
ATOM      8  C   UNL     1     -46.350  33.743  25.087  1.00  0.00    -0.019 A 
ATOM      9  C   UNL     1     -46.551  32.811  24.066  1.00  0.00    -0.047 A 
ATOM     10  C   UNL     1     -47.289  31.620  24.279  1.00  0.00     0.024 A 
ATOM     11  H   UNL     1     -48.381  28.679  22.947  1.00  0.00     0.066 H 
ATOM     12  H   UNL     1     -48.000  32.127  27.558  1.00  0.00     0.069 H 
ATOM     13  H   UNL     1     -45.776  34.634  24.859  1.00  0.00     0.066 H 
ATOM     14  H   UNL     1     -46.108  33.016  23.095  1.00  0.00     0.063 H 
ENDROOT
BRANCH   1  15
ATOM     15  N   UNL     1     -47.035  30.835  21.972  1.00  0.00    -0.383 N 
ATOM     16  H   UNL     1     -46.465  31.677  21.926  1.00  0.00     0.160 HD
BRANCH  15  17
ATOM     17  C   UNL     1     -47.880  30.697  20.782  1.00  0.00     0.027 C 
ATOM     18  H   UNL     1     -47.219  30.520  19.923  1.00  0.00     0.050 H 
ATOM     19  H   UNL     1     -48.406  31.633  20.565  1.00  0.00     0.050 H 
BRANCH  17  20
ATOM     20  C   UNL     1     -48.830  29.485  20.907  1.00  0.00     0.015 C 
ATOM     21  H   UNL     1     -48.720  29.000  21.886  1.00  0.00     0.045 H 
ATOM     22  H   UNL     1     -48.496  28.746  20.166  1.00  0.00     0.045 H 
BRANCH  20  23
ATOM     23  N   UNL     1     -50.250  29.813  20.652  1.00  0.00    -0.308 NA
BRANCH  23  24
ATOM     24  C   UNL     1     -51.087  29.243  21.712  1.00  0.00    -0.014 C 
ATOM     25  H   UNL     1     -52.112  29.093  21.355  1.00  0.00     0.039 H 
ATOM     26  H   UNL     1     -51.153  29.931  22.562  1.00  0.00     0.039 H 
ATOM     27  H   UNL     1     -50.702  28.283  22.073  1.00  0.00     0.039 H 
ENDBRANCH  23  24
BRANCH  23  28
ATOM     28  C   UNL     1     -50.465  31.261  20.585  1.00  0.00    -0.014 C 
ATOM     29  H   UNL     1     -49.516  31.800  20.496  1.00  0.00     0.039 H 
ATOM     30  H   UNL     1     -50.997  31.641  21.464  1.00  0.00     0.039 H 
ATOM     31  H   UNL     1     -51.045  31.520  19.693  1.00  0.00     0.039 H 
ENDBRANCH  23  28
ENDBRANCH  20  23
ENDBRANCH  17  20
ENDBRANCH  15  17
ENDBRANCH   1  15
BRANCH   3  32
ATOM     32  C   UNL     1     -49.452  28.051  25.506  1.00  0.00     0.001 C 
ATOM     33  C   UNL     1     -48.837  27.178  26.635  1.00  0.00    -0.045 C 
ATOM     34  C   UNL     1     -49.450  26.765  24.631  1.00  0.00    -0.045 C 
ATOM     35  H   UNL     1     -50.477  28.348  25.771  1.00  0.00     0.037 H 
ATOM     36  C   UNL     1     -48.355  26.196  25.551  1.00  0.00    -0.052 C 
ATOM     37  H   UNL     1     -49.588  26.749  27.309  1.00  0.00     0.027 H 
ATOM     38  H   UNL     1     -48.051  27.633  27.245  1.00  0.00     0.027 H 
ATOM     39  H   UNL     1     -50.392  26.208  24.672  1.00  0.00     0.027 H 
ATOM     40  H   UNL     1     -49.161  26.888  23.584  1.00  0.00     0.027 H 
ATOM     41  H   UNL     1     -47.336  26.387  25.198  1.00  0.00     0.027 H 
ATOM     42  H   UNL     1     -48.449  25.136  25.800  1.00  0.00     0.027 H 
ENDBRANCH   3  32
BRANCH   7  43
ATOM     43  O   UNL     1     -46.766  34.317  27.439  1.00  0.00    -0.489 OA
BRANCH  43  44
ATOM     44  C   UNL     1     -47.138  35.685  27.275  1.00  0.00     0.115 C 
ATOM     45  H   UNL     1     -48.226  35.778  27.370  1.00  0.00     0.076 H 
ATOM     46  H   UNL     1     -46.816  36.058  26.295  1.00  0.00     0.076 H 
BRANCH  44  47
ATOM     47  C   UNL     1     -46.465  36.515  28.336  1.00  0.00     0.010 A 
ATOM     48  C   UNL     1     -46.583  36.194  29.682  1.00  0.00     0.034 A 
ATOM     49  C   UNL     1     -45.649  37.606  27.999  1.00  0.00    -0.028 A 
ATOM     50  N   UNL     1     -45.970  36.875  30.673  1.00  0.00    -0.262 NA
ATOM     51  H   UNL     1     -47.191  35.355  30.012  1.00  0.00     0.084 H 
ATOM     52  C   UNL     1     -45.000  38.344  28.993  1.00  0.00     0.066 A 
ATOM     53  H   UNL     1     -45.559  37.859  26.948  1.00  0.00     0.065 H 
ATOM     54  C   UNL     1     -45.201  37.931  30.308  1.00  0.00     0.051 A 
ATOM     55  H   UNL     1     -44.740  38.414  31.162  1.00  0.00     0.086 H 
BRANCH  52  56
ATOM     56  N   UNL     1     -44.167  39.472  28.696  1.00  0.00    -0.300 N 
ATOM     57  C   UNL     1     -43.106  39.909  29.481  1.00  0.00     0.012 A 
ATOM     58  C   UNL     1     -44.245  40.336  27.598  1.00  0.00     0.150 A 
ATOM     59  C   UNL     1     -42.530  41.017  28.905  1.00  0.00    -0.031 A 
ATOM     60  H   UNL     1     -42.834  39.417  30.402  1.00  0.00     0.082 H 
ATOM     61  C   UNL     1     -43.242  41.297  27.717  1.00  0.00     0.061 A 
ATOM     62  N   UNL     1     -45.117  40.269  26.570  1.00  0.00    -0.218 NA
ATOM     63  H   UNL     1     -41.683  41.563  29.298  1.00  0.00     0.065 H 
ATOM     64  C   UNL     1     -43.150  42.263  26.705  1.00  0.00     0.136 A 
ATOM     65  C   UNL     1     -44.931  41.240  25.664  1.00  0.00     0.120 A 
ATOM     66  N   UNL     1     -44.016  42.222  25.678  1.00  0.00    -0.219 NA
ATOM     67  H   UNL     1     -45.605  41.234  24.813  1.00  0.00     0.106 H 
BRANCH  64  68
ATOM     68  N   UNL     1     -42.213  43.286  26.703  1.00  0.00    -0.383 N 
ATOM     69  H   UNL     1     -42.326  43.969  25.968  1.00  0.00     0.158 HD
ATOM     70  H   UNL     1     -41.279  42.914  26.831  1.00  0.00     0.158 HD
ENDBRANCH  64  68
ENDBRANCH  52  56
ENDBRANCH  44  47
ENDBRANCH  43  44
ENDBRANCH   7  43
TORSDOF 12
ENDMDL
MODEL 6
REMARK VINA RESULT:      -8.3      1.721     11.314
REMARK SMILES CN(C)CCNc1cc(C2CCC2)nc2cc(OCc3cncc(-n4ccc5c(N)ncnc54)c3)ccc12
REMARK SMILES IDX 7 1 8 2 9 3 14 4 15 5 16 6 17 7 36 8 37 9 38 10 6 15 5 17
REMARK SMILES IDX 4 20 2 23 1 24 3 28 10 32 11 33 13 34 12 36 18 43 19 44
REMARK SMILES IDX 20 47 21 48 35 49 22 50 24 52 23 54 25 56 26 57 34 58 27 59
REMARK SMILES IDX 28 61 33 62 29 64 32 65 31 66 30 68
REMARK H PARENT 8 11 16 12 36 13 37 14 6 16 5 18 5 19 4 21 4 22 1 25 1 26 1 27
REMARK H PARENT 3 29 3 30 3 31 10 35 11 37 11 38 13 39 13 40 12 41 12 42 19 45
REMARK H PARENT 19 46 21 51 35 53 23 55 26 60 27 63 32 67 30 69 30 70
REMARK Flexibility Score: inf
ROOT
ATOM      1  C   UNL     1     -45.989  38.636  28.676  1.00  0.00     0.045 A 
ATOM      2  C   UNL     1     -46.982  39.611  28.553  1.00  0.00    -0.016 A 
ATOM      3  C   UNL     1     -48.217  39.309  27.985  1.00  0.00     0.046 A 
ATOM      4  N   UNL     1     -48.482  38.067  27.523  1.00  0.00    -0.252 NA
ATOM      5  C   UNL     1     -47.532  37.123  27.577  1.00  0.00     0.076 A 
ATOM      6  C   UNL     1     -47.830  35.870  27.056  1.00  0.00     0.007 A 
ATOM      7  C   UNL     1     -46.903  34.826  27.039  1.00  0.00     0.122 A 
ATOM      8  C   UNL     1     -45.634  35.043  27.558  1.00  0.00    -0.019 A 
ATOM      9  C   UNL     1     -45.314  36.293  28.094  1.00  0.00    -0.047 A 
ATOM     10  C   UNL     1     -46.254  37.352  28.128  1.00  0.00     0.024 A 
ATOM     11  H   UNL     1     -46.824  40.620  28.910  1.00  0.00     0.066 H 
ATOM     12  H   UNL     1     -48.821  35.706  26.639  1.00  0.00     0.069 H 
ATOM     13  H   UNL     1     -44.869  34.274  27.562  1.00  0.00     0.066 H 
ATOM     14  H   UNL     1     -44.307  36.440  28.474  1.00  0.00     0.063 H 
ENDROOT
BRANCH   1  15
ATOM     15  N   UNL     1     -44.722  38.919  29.224  1.00  0.00    -0.383 N 
ATOM     16  H   UNL     1     -44.763  38.917  30.241  1.00  0.00     0.160 HD
BRANCH  15  17
ATOM     17  C   UNL     1     -43.884  40.014  28.726  1.00  0.00     0.027 C 
ATOM     18  H   UNL     1     -42.837  39.697  28.814  1.00  0.00     0.050 H 
ATOM     19  H   UNL     1     -43.981  40.900  29.362  1.00  0.00     0.050 H 
BRANCH  17  20
ATOM     20  C   UNL     1     -44.170  40.304  27.236  1.00  0.00     0.015 C 
ATOM     21  H   UNL     1     -44.940  39.627  26.845  1.00  0.00     0.045 H 
ATOM     22  H   UNL     1     -43.249  40.062  26.687  1.00  0.00     0.045 H 
BRANCH  20  23
ATOM     23  N   UNL     1     -44.535  41.712  26.964  1.00  0.00    -0.308 NA
BRANCH  23  24
ATOM     24  C   UNL     1     -43.341  42.463  26.563  1.00  0.00    -0.014 C 
ATOM     25  H   UNL     1     -42.534  41.780  26.276  1.00  0.00     0.039 H 
ATOM     26  H   UNL     1     -42.961  43.058  27.401  1.00  0.00     0.039 H 
ATOM     27  H   UNL     1     -43.539  43.138  25.723  1.00  0.00     0.039 H 
ENDBRANCH  23  24
BRANCH  23  28
ATOM     28  C   UNL     1     -45.551  41.812  25.913  1.00  0.00    -0.014 C 
ATOM     29  H   UNL     1     -45.639  42.838  25.542  1.00  0.00     0.039 H 
ATOM     30  H   UNL     1     -46.538  41.483  26.258  1.00  0.00     0.039 H 
ATOM     31  H   UNL     1     -45.268  41.201  25.048  1.00  0.00     0.039 H 
ENDBRANCH  23  28
ENDBRANCH  20  23
ENDBRANCH  17  20
ENDBRANCH  15  17
ENDBRANCH   1  15
BRANCH   3  32
ATOM     32  C   UNL     1     -49.430  40.308  27.814  1.00  0.00     0.001 C 
ATOM     33  C   UNL     1     -49.278  41.799  28.226  1.00  0.00    -0.045 C 
ATOM     34  C   UNL     1     -50.578  40.228  28.861  1.00  0.00    -0.045 C 
ATOM     35  H   UNL     1     -49.822  40.235  26.789  1.00  0.00     0.037 H 
ATOM     36  C   UNL     1     -49.964  41.454  29.560  1.00  0.00    -0.052 C 
ATOM     37  H   UNL     1     -49.862  42.484  27.600  1.00  0.00     0.027 H 
ATOM     38  H   UNL     1     -48.261  42.193  28.306  1.00  0.00     0.027 H 
ATOM     39  H   UNL     1     -51.570  40.415  28.435  1.00  0.00     0.027 H 
ATOM     40  H   UNL     1     -50.623  39.319  29.467  1.00  0.00     0.027 H 
ATOM     41  H   UNL     1     -49.269  41.201  30.368  1.00  0.00     0.027 H 
ATOM     42  H   UNL     1     -50.678  42.195  29.930  1.00  0.00     0.027 H 
ENDBRANCH   3  32
BRANCH   7  43
ATOM     43  O   UNL     1     -47.360  33.663  26.485  1.00  0.00    -0.489 OA
BRANCH  43  44
ATOM     44  C   UNL     1     -48.771  33.529  26.319  1.00  0.00     0.115 C 
ATOM     45  H   UNL     1     -49.179  34.459  25.908  1.00  0.00     0.076 H 
ATOM     46  H   UNL     1     -49.254  33.302  27.278  1.00  0.00     0.076 H 
BRANCH  44  47
ATOM     47  C   UNL     1     -49.056  32.392  25.372  1.00  0.00     0.010 A 
ATOM     48  C   UNL     1     -50.279  32.286  24.724  1.00  0.00     0.034 A 
ATOM     49  C   UNL     1     -48.075  31.435  25.068  1.00  0.00    -0.028 A 
ATOM     50  N   UNL     1     -50.575  31.315  23.835  1.00  0.00    -0.262 NA
ATOM     51  H   UNL     1     -51.079  32.999  24.905  1.00  0.00     0.084 H 
ATOM     52  C   UNL     1     -48.341  30.408  24.158  1.00  0.00     0.066 A 
ATOM     53  H   UNL     1     -47.121  31.516  25.576  1.00  0.00     0.065 H 
ATOM     54  C   UNL     1     -49.607  30.401  23.577  1.00  0.00     0.051 A 
ATOM     55  H   UNL     1     -49.924  29.665  22.847  1.00  0.00     0.086 H 
BRANCH  52  56
ATOM     56  N   UNL     1     -47.375  29.403  23.825  1.00  0.00    -0.300 N 
ATOM     57  C   UNL     1     -46.357  29.552  22.891  1.00  0.00     0.012 A 
ATOM     58  C   UNL     1     -47.260  28.110  24.350  1.00  0.00     0.150 A 
ATOM     59  C   UNL     1     -45.620  28.393  22.819  1.00  0.00    -0.031 A 
ATOM     60  H   UNL     1     -46.226  30.464  22.328  1.00  0.00     0.082 H 
ATOM     61  C   UNL     1     -46.183  27.475  23.734  1.00  0.00     0.061 A 
ATOM     62  N   UNL     1     -48.031  27.548  25.304  1.00  0.00    -0.218 NA
ATOM     63  H   UNL     1     -44.765  28.229  22.177  1.00  0.00     0.065 H 
ATOM     64  C   UNL     1     -45.898  26.160  24.127  1.00  0.00     0.136 A 
ATOM     65  C   UNL     1     -47.662  26.294  25.600  1.00  0.00     0.120 A 
ATOM     66  N   UNL     1     -46.660  25.577  25.068  1.00  0.00    -0.219 NA
ATOM     67  H   UNL     1     -48.248  25.791  26.364  1.00  0.00     0.106 H 
BRANCH  64  68
ATOM     68  N   UNL     1     -44.868  25.404  23.587  1.00  0.00    -0.383 N 
ATOM     69  H   UNL     1     -44.058  25.297  24.182  1.00  0.00     0.158 HD
ATOM     70  H   UNL     1     -44.688  25.678  22.628  1.00  0.00     0.158 HD
ENDBRANCH  64  68
ENDBRANCH  52  56
ENDBRANCH  44  47
ENDBRANCH  43  44
ENDBRANCH   7  43
TORSDOF 12
ENDMDL
MODEL 7
REMARK VINA RESULT:      -8.2      1.705      2.255
REMARK SMILES CN(C)CCNc1cc(C2CCC2)nc2cc(OCc3cncc(-n4ccc5c(N)ncnc54)c3)ccc12
REMARK SMILES IDX 7 1 8 2 9 3 14 4 15 5 16 6 17 7 36 8 37 9 38 10 6 15 5 17
REMARK SMILES IDX 4 20 2 23 1 24 3 28 10 32 11 33 13 34 12 36 18 43 19 44
REMARK SMILES IDX 20 47 21 48 35 49 22 50 24 52 23 54 25 56 26 57 34 58 27 59
REMARK SMILES IDX 28 61 33 62 29 64 32 65 31 66 30 68
REMARK H PARENT 8 11 16 12 36 13 37 14 6 16 5 18 5 19 4 21 4 22 1 25 1 26 1 27
REMARK H PARENT 3 29 3 30 3 31 10 35 11 37 11 38 13 39 13 40 12 41 12 42 19 45
REMARK H PARENT 19 46 21 51 35 53 23 55 26 60 27 63 32 67 30 69 30 70
REMARK Flexibility Score: inf
ROOT
ATOM      1  C   UNL     1     -47.909  29.418  23.706  1.00  0.00     0.045 A 
ATOM      2  C   UNL     1     -49.171  28.856  23.499  1.00  0.00    -0.016 A 
ATOM      3  C   UNL     1     -50.329  29.549  23.841  1.00  0.00     0.046 A 
ATOM      4  N   UNL     1     -50.263  30.779  24.397  1.00  0.00    -0.252 NA
ATOM      5  C   UNL     1     -49.066  31.324  24.658  1.00  0.00     0.076 A 
ATOM      6  C   UNL     1     -49.040  32.573  25.266  1.00  0.00     0.007 A 
ATOM      7  C   UNL     1     -47.848  33.216  25.605  1.00  0.00     0.122 A 
ATOM      8  C   UNL     1     -46.641  32.588  25.328  1.00  0.00    -0.019 A 
ATOM      9  C   UNL     1     -46.643  31.335  24.710  1.00  0.00    -0.047 A 
ATOM     10  C   UNL     1     -47.848  30.684  24.350  1.00  0.00     0.024 A 
ATOM     11  H   UNL     1     -49.282  27.877  23.053  1.00  0.00     0.066 H 
ATOM     12  H   UNL     1     -49.987  33.058  25.492  1.00  0.00     0.069 H 
ATOM     13  H   UNL     1     -45.685  33.033  25.578  1.00  0.00     0.066 H 
ATOM     14  H   UNL     1     -45.684  30.858  24.526  1.00  0.00     0.063 H 
ENDROOT
BRANCH   1  15
ATOM     15  N   UNL     1     -46.719  28.732  23.392  1.00  0.00    -0.383 N 
ATOM     16  H   UNL     1     -46.415  28.954  22.447  1.00  0.00     0.160 HD
BRANCH  15  17
ATOM     17  C   UNL     1     -46.542  27.306  23.688  1.00  0.00     0.027 C 
ATOM     18  H   UNL     1     -45.554  27.010  23.310  1.00  0.00     0.050 H 
ATOM     19  H   UNL     1     -47.266  26.700  23.135  1.00  0.00     0.050 H 
BRANCH  17  20
ATOM     20  C   UNL     1     -46.568  27.043  25.210  1.00  0.00     0.015 C 
ATOM     21  H   UNL     1     -46.452  27.978  25.772  1.00  0.00     0.045 H 
ATOM     22  H   UNL     1     -45.677  26.442  25.439  1.00  0.00     0.045 H 
BRANCH  20  23
ATOM     23  N   UNL     1     -47.770  26.312  25.666  1.00  0.00    -0.308 NA
BRANCH  23  24
ATOM     24  C   UNL     1     -47.375  25.028  26.254  1.00  0.00    -0.014 C 
ATOM     25  H   UNL     1     -47.521  25.041  27.340  1.00  0.00     0.039 H 
ATOM     26  H   UNL     1     -46.309  24.840  26.087  1.00  0.00     0.039 H 
ATOM     27  H   UNL     1     -47.943  24.189  25.838  1.00  0.00     0.039 H 
ENDBRANCH  23  24
BRANCH  23  28
ATOM     28  C   UNL     1     -48.531  27.087  26.650  1.00  0.00    -0.014 C 
ATOM     29  H   UNL     1     -49.163  27.835  26.164  1.00  0.00     0.039 H 
ATOM     30  H   UNL     1     -47.880  27.598  27.368  1.00  0.00     0.039 H 
ATOM     31  H   UNL     1     -49.210  26.433  27.209  1.00  0.00     0.039 H 
ENDBRANCH  23  28
ENDBRANCH  20  23
ENDBRANCH  17  20
ENDBRANCH  15  17
ENDBRANCH   1  15
BRANCH   3  32
ATOM     32  C   UNL     1     -51.811  29.040  23.632  1.00  0.00     0.001 C 
ATOM     33  C   UNL     1     -52.175  27.557  23.920  1.00  0.00    -0.045 C 
ATOM     34  C   UNL     1     -52.282  28.780  22.173  1.00  0.00    -0.045 C 
ATOM     35  H   UNL     1     -52.506  29.711  24.160  1.00  0.00     0.037 H 
ATOM     36  C   UNL     1     -52.044  27.279  22.412  1.00  0.00    -0.052 C 
ATOM     37  H   UNL     1     -53.196  27.427  24.300  1.00  0.00     0.027 H 
ATOM     38  H   UNL     1     -51.497  26.993  24.566  1.00  0.00     0.027 H 
ATOM     39  H   UNL     1     -53.334  29.037  22.002  1.00  0.00     0.027 H 
ATOM     40  H   UNL     1     -51.679  29.228  21.378  1.00  0.00     0.027 H 
ATOM     41  H   UNL     1     -51.050  26.934  22.106  1.00  0.00     0.027 H 
ATOM     42  H   UNL     1     -52.795  26.607  21.988  1.00  0.00     0.027 H 
ENDBRANCH   3  32
BRANCH   7  43
ATOM     43  O   UNL     1     -48.005  34.436  26.200  1.00  0.00    -0.489 OA
BRANCH  43  44
ATOM     44  C   UNL     1     -46.996  34.849  27.123  1.00  0.00     0.115 C 
ATOM     45  H   UNL     1     -46.009  34.682  26.678  1.00  0.00     0.076 H 
ATOM     46  H   UNL     1     -47.081  34.290  28.063  1.00  0.00     0.076 H 
BRANCH  44  47
ATOM     47  C   UNL     1     -47.171  36.313  27.430  1.00  0.00     0.010 A 
ATOM     48  C   UNL     1     -48.427  36.852  27.672  1.00  0.00     0.034 A 
ATOM     49  C   UNL     1     -46.065  37.170  27.541  1.00  0.00    -0.028 A 
ATOM     50  N   UNL     1     -48.640  38.145  27.993  1.00  0.00    -0.262 NA
ATOM     51  H   UNL     1     -49.325  36.242  27.614  1.00  0.00     0.084 H 
ATOM     52  C   UNL     1     -46.239  38.519  27.865  1.00  0.00     0.066 A 
ATOM     53  H   UNL     1     -45.084  36.751  27.349  1.00  0.00     0.065 H 
ATOM     54  C   UNL     1     -47.548  38.945  28.077  1.00  0.00     0.051 A 
ATOM     55  H   UNL     1     -47.807  39.962  28.348  1.00  0.00     0.086 H 
BRANCH  52  56
ATOM     56  N   UNL     1     -45.141  39.433  27.977  1.00  0.00    -0.300 N 
ATOM     57  C   UNL     1     -44.165  39.391  28.966  1.00  0.00     0.012 A 
ATOM     58  C   UNL     1     -44.835  40.519  27.149  1.00  0.00     0.150 A 
ATOM     59  C   UNL     1     -43.269  40.417  28.777  1.00  0.00    -0.031 A 
ATOM     60  H   UNL     1     -44.174  38.645  29.747  1.00  0.00     0.082 H 
ATOM     61  C   UNL     1     -43.684  41.137  27.635  1.00  0.00     0.061 A 
ATOM     62  N   UNL     1     -45.507  40.918  26.048  1.00  0.00    -0.218 NA
ATOM     63  H   UNL     1     -42.406  40.621  29.396  1.00  0.00     0.065 H 
ATOM     64  C   UNL     1     -43.208  42.256  26.935  1.00  0.00     0.136 A 
ATOM     65  C   UNL     1     -44.957  41.991  25.463  1.00  0.00     0.120 A 
ATOM     66  N   UNL     1     -43.867  42.676  25.843  1.00  0.00    -0.219 NA
ATOM     67  H   UNL     1     -45.457  42.356  24.570  1.00  0.00     0.106 H 
BRANCH  64  68
ATOM     68  N   UNL     1     -42.084  42.976  27.314  1.00  0.00    -0.383 N 
ATOM     69  H   UNL     1     -42.207  43.565  28.126  1.00  0.00     0.158 HD
ATOM     70  H   UNL     1     -41.649  43.409  26.507  1.00  0.00     0.158 HD
ENDBRANCH  64  68
ENDBRANCH  52  56
ENDBRANCH  44  47
ENDBRANCH  43  44
ENDBRANCH   7  43
TORSDOF 12
ENDMDL
