MODEL 1
REMARK VINA RESULT:      -9.9      0.000      0.000
REMARK SMILES CC(C)(C)NCc1cc2ccc(CNC(=O)c3cc(=O)n4ccccc4n3)cc2[nH]1
REMARK SMILES IDX 7 1 8 2 9 3 10 4 11 5 12 6 28 7 29 8 30 9 6 15 5 18 2 20
REMARK SMILES IDX 1 21 3 25 4 29 13 33 14 36 15 37 16 39 17 40 18 41 27 42
REMARK SMILES IDX 19 43 26 45 20 46 21 47 25 48 22 49 24 50 23 52
REMARK H PARENT 8 10 10 11 11 12 28 13 30 14 6 16 6 17 5 19 1 22 1 23 1 24
REMARK H PARENT 3 26 3 27 3 28 4 30 4 31 4 32 13 34 13 35 14 38 18 44 25 51
REMARK H PARENT 22 53 24 54 23 55
REMARK Flexibility Score: inf
ROOT
ATOM      1  C   UNL     1     -47.750  30.594  24.412  1.00  0.00     0.030 A 
ATOM      2  C   UNL     1     -46.673  31.447  24.275  1.00  0.00    -0.032 A 
ATOM      3  C   UNL     1     -46.968  32.645  24.985  1.00  0.00    -0.000 A 
ATOM      4  C   UNL     1     -46.273  33.849  25.203  1.00  0.00    -0.052 A 
ATOM      5  C   UNL     1     -46.868  34.853  25.976  1.00  0.00    -0.057 A 
ATOM      6  C   UNL     1     -48.140  34.679  26.539  1.00  0.00    -0.027 A 
ATOM      7  C   UNL     1     -48.847  33.485  26.319  1.00  0.00    -0.033 A 
ATOM      8  C   UNL     1     -48.236  32.492  25.543  1.00  0.00     0.046 A 
ATOM      9  N   UNL     1     -48.686  31.245  25.179  1.00  0.00    -0.357 N 
ATOM     10  H   UNL     1     -45.766  31.237  23.724  1.00  0.00     0.065 H 
ATOM     11  H   UNL     1     -45.286  34.001  24.776  1.00  0.00     0.063 H 
ATOM     12  H   UNL     1     -46.329  35.786  26.134  1.00  0.00     0.063 H 
ATOM     13  H   UNL     1     -49.838  33.332  26.736  1.00  0.00     0.065 H 
ATOM     14  H   UNL     1     -49.567  30.833  25.459  1.00  0.00     0.166 HD
ENDROOT
BRANCH   1  15
ATOM     15  C   UNL     1     -47.995  29.224  23.879  1.00  0.00     0.036 C 
ATOM     16  H   UNL     1     -49.074  29.037  23.917  1.00  0.00     0.049 H 
ATOM     17  H   UNL     1     -47.676  29.185  22.832  1.00  0.00     0.049 H 
BRANCH  15  18
ATOM     18  N   UNL     1     -47.258  28.262  24.694  1.00  0.00    -0.307 NA
ATOM     19  H   UNL     1     -46.551  27.833  24.094  1.00  0.00     0.123 HD
BRANCH  18  20
ATOM     20  C   UNL     1     -48.065  27.198  25.318  1.00  0.00     0.010 C 
BRANCH  20  21
ATOM     21  C   UNL     1     -49.336  26.891  24.508  1.00  0.00    -0.047 C 
ATOM     22  H   UNL     1     -50.232  27.312  24.976  1.00  0.00     0.025 H 
ATOM     23  H   UNL     1     -49.486  25.811  24.397  1.00  0.00     0.025 H 
ATOM     24  H   UNL     1     -49.271  27.320  23.501  1.00  0.00     0.025 H 
ENDBRANCH  20  21
BRANCH  20  25
ATOM     25  C   UNL     1     -47.255  25.909  25.533  1.00  0.00    -0.047 C 
ATOM     26  H   UNL     1     -46.209  26.118  25.779  1.00  0.00     0.025 H 
ATOM     27  H   UNL     1     -47.255  25.291  24.626  1.00  0.00     0.025 H 
ATOM     28  H   UNL     1     -47.678  25.302  26.342  1.00  0.00     0.025 H 
ENDBRANCH  20  25
BRANCH  20  29
ATOM     29  C   UNL     1     -48.491  27.741  26.697  1.00  0.00    -0.047 C 
ATOM     30  H   UNL     1     -48.905  28.753  26.620  1.00  0.00     0.025 H 
ATOM     31  H   UNL     1     -47.638  27.787  27.384  1.00  0.00     0.025 H 
ATOM     32  H   UNL     1     -49.253  27.102  27.161  1.00  0.00     0.025 H 
ENDBRANCH  20  29
ENDBRANCH  18  20
ENDBRANCH  15  18
ENDBRANCH   1  15
BRANCH   6  33
ATOM     33  C   UNL     1     -48.761  35.790  27.349  1.00  0.00     0.043 C 
ATOM     34  H   UNL     1     -49.607  36.230  26.809  1.00  0.00     0.054 H 
ATOM     35  H   UNL     1     -49.148  35.398  28.295  1.00  0.00     0.054 H 
BRANCH  33  36
ATOM     36  N   UNL     1     -47.808  36.845  27.584  1.00  0.00    -0.347 N 
ATOM     37  C   UNL     1     -46.980  36.868  28.679  1.00  0.00     0.270 C 
ATOM     38  H   UNL     1     -47.559  37.468  26.823  1.00  0.00     0.164 HD
ATOM     39  O   UNL     1     -47.058  36.095  29.627  1.00  0.00    -0.268 OA
BRANCH  37  40
ATOM     40  C   UNL     1     -45.936  37.956  28.584  1.00  0.00     0.136 A 
ATOM     41  C   UNL     1     -45.067  38.032  29.594  1.00  0.00     0.035 A 
ATOM     42  N   UNL     1     -45.937  38.782  27.483  1.00  0.00    -0.225 NA
ATOM     43  C   UNL     1     -44.030  39.071  29.541  1.00  0.00     0.258 A 
ATOM     44  H   UNL     1     -45.074  37.375  30.454  1.00  0.00     0.071 H 
ATOM     45  C   UNL     1     -45.015  39.695  27.439  1.00  0.00     0.140 A 
ATOM     46  O   UNL     1     -43.227  39.152  30.470  1.00  0.00    -0.269 OA
ATOM     47  N   UNL     1     -44.050  39.887  28.420  1.00  0.00    -0.268 N 
ATOM     48  C   UNL     1     -44.975  40.611  26.263  1.00  0.00    -0.019 A 
ATOM     49  C   UNL     1     -43.095  40.892  28.297  1.00  0.00     0.014 A 
ATOM     50  C   UNL     1     -44.037  41.563  26.190  1.00  0.00    -0.057 A 
ATOM     51  H   UNL     1     -45.722  40.469  25.493  1.00  0.00     0.066 H 
ATOM     52  C   UNL     1     -43.065  41.711  27.239  1.00  0.00    -0.045 A 
ATOM     53  H   UNL     1     -42.370  40.986  29.103  1.00  0.00     0.082 H 
ATOM     54  H   UNL     1     -43.991  42.239  25.342  1.00  0.00     0.062 H 
ATOM     55  H   UNL     1     -42.316  42.492  27.154  1.00  0.00     0.064 H 
ENDBRANCH  37  40
ENDBRANCH  33  36
ENDBRANCH   6  33
TORSDOF 9
ENDMDL
MODEL 2
REMARK VINA RESULT:      -9.9      2.615      3.735
REMARK SMILES CC(C)(C)NCc1cc2ccc(CNC(=O)c3cc(=O)n4ccccc4n3)cc2[nH]1
REMARK SMILES IDX 7 1 8 2 9 3 10 4 11 5 12 6 28 7 29 8 30 9 6 15 5 18 2 20
REMARK SMILES IDX 1 21 3 25 4 29 13 33 14 36 15 37 16 39 17 40 18 41 27 42
REMARK SMILES IDX 19 43 26 45 20 46 21 47 25 48 22 49 24 50 23 52
REMARK H PARENT 8 10 10 11 11 12 28 13 30 14 6 16 6 17 5 19 1 22 1 23 1 24
REMARK H PARENT 3 26 3 27 3 28 4 30 4 31 4 32 13 34 13 35 14 38 18 44 25 51
REMARK H PARENT 22 53 24 54 23 55
REMARK Flexibility Score: inf
ROOT
ATOM      1  C   UNL     1     -46.663  32.708  25.152  1.00  0.00     0.030 A 
ATOM      2  C   UNL     1     -47.860  33.314  25.478  1.00  0.00    -0.032 A 
ATOM      3  C   UNL     1     -47.582  34.377  26.383  1.00  0.00    -0.000 A 
ATOM      4  C   UNL     1     -48.377  35.328  27.048  1.00  0.00    -0.052 A 
ATOM      5  C   UNL     1     -47.766  36.264  27.892  1.00  0.00    -0.057 A 
ATOM      6  C   UNL     1     -46.377  36.272  28.081  1.00  0.00    -0.027 A 
ATOM      7  C   UNL     1     -45.574  35.319  27.431  1.00  0.00    -0.033 A 
ATOM      8  C   UNL     1     -46.204  34.392  26.591  1.00  0.00     0.046 A 
ATOM      9  N   UNL     1     -45.673  33.371  25.838  1.00  0.00    -0.357 N 
ATOM     10  H   UNL     1     -48.835  33.028  25.107  1.00  0.00     0.065 H 
ATOM     11  H   UNL     1     -49.454  35.339  26.912  1.00  0.00     0.063 H 
ATOM     12  H   UNL     1     -48.387  36.993  28.410  1.00  0.00     0.063 H 
ATOM     13  H   UNL     1     -44.498  35.299  27.571  1.00  0.00     0.065 H 
ATOM     14  H   UNL     1     -44.690  33.149  25.758  1.00  0.00     0.166 HD
ENDROOT
BRANCH   1  15
ATOM     15  C   UNL     1     -46.354  31.551  24.265  1.00  0.00     0.036 C 
ATOM     16  H   UNL     1     -45.440  31.075  24.638  1.00  0.00     0.049 H 
ATOM     17  H   UNL     1     -47.171  30.824  24.328  1.00  0.00     0.049 H 
BRANCH  15  18
ATOM     18  N   UNL     1     -46.183  32.037  22.898  1.00  0.00    -0.307 NA
ATOM     19  H   UNL     1     -46.901  32.745  22.735  1.00  0.00     0.123 HD
BRANCH  18  20
ATOM     20  C   UNL     1     -46.267  31.016  21.838  1.00  0.00     0.010 C 
BRANCH  20  21
ATOM     21  C   UNL     1     -45.902  31.590  20.459  1.00  0.00    -0.047 C 
ATOM     22  H   UNL     1     -45.065  32.295  20.517  1.00  0.00     0.025 H 
ATOM     23  H   UNL     1     -46.753  32.112  20.006  1.00  0.00     0.025 H 
ATOM     24  H   UNL     1     -45.600  30.793  19.770  1.00  0.00     0.025 H 
ENDBRANCH  20  21
BRANCH  20  25
ATOM     25  C   UNL     1     -45.392  29.790  22.145  1.00  0.00    -0.047 C 
ATOM     26  H   UNL     1     -45.906  28.851  21.912  1.00  0.00     0.025 H 
ATOM     27  H   UNL     1     -45.126  29.755  23.209  1.00  0.00     0.025 H 
ATOM     28  H   UNL     1     -44.456  29.814  21.575  1.00  0.00     0.025 H 
ENDBRANCH  20  25
BRANCH  20  29
ATOM     29  C   UNL     1     -47.741  30.565  21.799  1.00  0.00    -0.047 C 
ATOM     30  H   UNL     1     -48.211  30.812  20.840  1.00  0.00     0.025 H 
ATOM     31  H   UNL     1     -48.326  31.055  22.586  1.00  0.00     0.025 H 
ATOM     32  H   UNL     1     -47.832  29.482  21.948  1.00  0.00     0.025 H 
ENDBRANCH  20  29
ENDBRANCH  18  20
ENDBRANCH  15  18
ENDBRANCH   1  15
BRANCH   6  33
ATOM     33  C   UNL     1     -45.753  37.279  29.015  1.00  0.00     0.043 C 
ATOM     34  H   UNL     1     -46.523  37.772  29.618  1.00  0.00     0.054 H 
ATOM     35  H   UNL     1     -45.068  36.779  29.709  1.00  0.00     0.054 H 
BRANCH  33  36
ATOM     36  N   UNL     1     -45.067  38.306  28.273  1.00  0.00    -0.347 N 
ATOM     37  C   UNL     1     -45.620  39.538  28.022  1.00  0.00     0.270 C 
ATOM     38  H   UNL     1     -44.066  38.229  28.127  1.00  0.00     0.164 HD
ATOM     39  O   UNL     1     -46.782  39.841  28.266  1.00  0.00    -0.268 OA
BRANCH  37  40
ATOM     40  C   UNL     1     -44.626  40.499  27.416  1.00  0.00     0.136 A 
ATOM     41  C   UNL     1     -43.502  40.704  28.108  1.00  0.00     0.035 A 
ATOM     42  N   UNL     1     -44.924  41.091  26.209  1.00  0.00    -0.225 NA
ATOM     43  C   UNL     1     -42.503  41.627  27.554  1.00  0.00     0.258 A 
ATOM     44  H   UNL     1     -43.278  40.232  29.056  1.00  0.00     0.071 H 
ATOM     45  C   UNL     1     -44.035  41.901  25.721  1.00  0.00     0.140 A 
ATOM     46  O   UNL     1     -41.467  41.825  28.187  1.00  0.00    -0.269 OA
ATOM     47  N   UNL     1     -42.826  42.205  26.336  1.00  0.00    -0.268 N 
ATOM     48  C   UNL     1     -44.313  42.561  24.414  1.00  0.00    -0.019 A 
ATOM     49  C   UNL     1     -41.926  43.087  25.746  1.00  0.00     0.014 A 
ATOM     50  C   UNL     1     -43.417  43.403  23.886  1.00  0.00    -0.057 A 
ATOM     51  H   UNL     1     -45.252  42.330  23.927  1.00  0.00     0.066 H 
ATOM     52  C   UNL     1     -42.182  43.677  24.572  1.00  0.00    -0.045 A 
ATOM     53  H   UNL     1     -41.000  43.280  26.282  1.00  0.00     0.082 H 
ATOM     54  H   UNL     1     -43.600  43.893  22.935  1.00  0.00     0.062 H 
ATOM     55  H   UNL     1     -41.473  44.364  24.121  1.00  0.00     0.064 H 
ENDBRANCH  37  40
ENDBRANCH  33  36
ENDBRANCH   6  33
TORSDOF 9
ENDMDL
MODEL 3
REMARK VINA RESULT:      -9.2      1.465      2.151
REMARK SMILES CC(C)(C)NCc1cc2ccc(CNC(=O)c3cc(=O)n4ccccc4n3)cc2[nH]1
REMARK SMILES IDX 7 1 8 2 9 3 10 4 11 5 12 6 28 7 29 8 30 9 6 15 5 18 2 20
REMARK SMILES IDX 1 21 3 25 4 29 13 33 14 36 15 37 16 39 17 40 18 41 27 42
REMARK SMILES IDX 19 43 26 45 20 46 21 47 25 48 22 49 24 50 23 52
REMARK H PARENT 8 10 10 11 11 12 28 13 30 14 6 16 6 17 5 19 1 22 1 23 1 24
REMARK H PARENT 3 26 3 27 3 28 4 30 4 31 4 32 13 34 13 35 14 38 18 44 25 51
REMARK H PARENT 22 53 24 54 23 55
REMARK Flexibility Score: inf
ROOT
ATOM      1  C   UNL     1     -48.021  31.099  24.515  1.00  0.00     0.030 A 
ATOM      2  C   UNL     1     -46.840  31.812  24.470  1.00  0.00    -0.032 A 
ATOM      3  C   UNL     1     -47.017  33.006  25.224  1.00  0.00    -0.000 A 
ATOM      4  C   UNL     1     -46.188  34.100  25.532  1.00  0.00    -0.052 A 
ATOM      5  C   UNL     1     -46.690  35.139  26.326  1.00  0.00    -0.057 A 
ATOM      6  C   UNL     1     -48.001  35.105  26.822  1.00  0.00    -0.027 A 
ATOM      7  C   UNL     1     -48.841  34.022  26.511  1.00  0.00    -0.033 A 
ATOM      8  C   UNL     1     -48.321  32.993  25.716  1.00  0.00     0.046 A 
ATOM      9  N   UNL     1     -48.906  31.832  25.271  1.00  0.00    -0.357 N 
ATOM     10  H   UNL     1     -45.940  31.511  23.951  1.00  0.00     0.065 H 
ATOM     11  H   UNL     1     -45.169  34.143  25.159  1.00  0.00     0.063 H 
ATOM     12  H   UNL     1     -46.046  35.987  26.555  1.00  0.00     0.063 H 
ATOM     13  H   UNL     1     -49.863  33.980  26.876  1.00  0.00     0.065 H 
ATOM     14  H   UNL     1     -49.845  31.524  25.490  1.00  0.00     0.166 HD
ENDROOT
BRANCH   1  15
ATOM     15  C   UNL     1     -48.410  29.797  23.905  1.00  0.00     0.036 C 
ATOM     16  H   UNL     1     -48.534  29.953  22.828  1.00  0.00     0.049 H 
ATOM     17  H   UNL     1     -47.601  29.075  24.057  1.00  0.00     0.049 H 
BRANCH  15  18
ATOM     18  N   UNL     1     -49.652  29.339  24.523  1.00  0.00    -0.307 NA
ATOM     19  H   UNL     1     -49.511  29.351  25.535  1.00  0.00     0.123 HD
BRANCH  18  20
ATOM     20  C   UNL     1     -50.113  27.998  24.120  1.00  0.00     0.010 C 
BRANCH  20  21
ATOM     21  C   UNL     1     -51.648  27.912  24.066  1.00  0.00    -0.047 C 
ATOM     22  H   UNL     1     -52.111  28.902  23.981  1.00  0.00     0.025 H 
ATOM     23  H   UNL     1     -52.051  27.425  24.961  1.00  0.00     0.025 H 
ATOM     24  H   UNL     1     -51.977  27.330  23.197  1.00  0.00     0.025 H 
ENDBRANCH  20  21
BRANCH  20  25
ATOM     25  C   UNL     1     -49.515  27.561  22.773  1.00  0.00    -0.047 C 
ATOM     26  H   UNL     1     -50.156  27.840  21.930  1.00  0.00     0.025 H 
ATOM     27  H   UNL     1     -49.390  26.472  22.735  1.00  0.00     0.025 H 
ATOM     28  H   UNL     1     -48.527  28.009  22.610  1.00  0.00     0.025 H 
ENDBRANCH  20  25
BRANCH  20  29
ATOM     29  C   UNL     1     -49.613  27.031  25.212  1.00  0.00    -0.047 C 
ATOM     30  H   UNL     1     -48.581  26.715  25.027  1.00  0.00     0.025 H 
ATOM     31  H   UNL     1     -50.231  26.126  25.252  1.00  0.00     0.025 H 
ATOM     32  H   UNL     1     -49.649  27.496  26.205  1.00  0.00     0.025 H 
ENDBRANCH  20  29
ENDBRANCH  18  20
ENDBRANCH  15  18
ENDBRANCH   1  15
BRANCH   6  33
ATOM     33  C   UNL     1     -48.517  36.251  27.656  1.00  0.00     0.043 C 
ATOM     34  H   UNL     1     -49.441  36.652  27.226  1.00  0.00     0.054 H 
ATOM     35  H   UNL     1     -48.754  35.906  28.669  1.00  0.00     0.054 H 
BRANCH  33  36
ATOM     36  N   UNL     1     -47.560  37.327  27.694  1.00  0.00    -0.347 N 
ATOM     37  C   UNL     1     -46.642  37.471  28.705  1.00  0.00     0.270 C 
ATOM     38  H   UNL     1     -47.384  37.864  26.852  1.00  0.00     0.164 HD
ATOM     39  O   UNL     1     -46.631  36.806  29.734  1.00  0.00    -0.268 OA
BRANCH  37  40
ATOM     40  C   UNL     1     -45.624  38.544  28.405  1.00  0.00     0.136 A 
ATOM     41  C   UNL     1     -45.795  39.222  27.267  1.00  0.00     0.035 A 
ATOM     42  N   UNL     1     -44.604  38.763  29.304  1.00  0.00    -0.225 NA
ATOM     43  C   UNL     1     -44.831  40.280  26.937  1.00  0.00     0.258 A 
ATOM     44  H   UNL     1     -46.602  39.043  26.569  1.00  0.00     0.071 H 
ATOM     45  C   UNL     1     -43.758  39.703  29.010  1.00  0.00     0.140 A 
ATOM     46  O   UNL     1     -44.978  40.907  25.888  1.00  0.00    -0.269 OA
ATOM     47  N   UNL     1     -43.817  40.483  27.860  1.00  0.00    -0.268 N 
ATOM     48  C   UNL     1     -42.641  39.978  29.957  1.00  0.00    -0.019 A 
ATOM     49  C   UNL     1     -42.869  41.472  27.619  1.00  0.00     0.014 A 
ATOM     50  C   UNL     1     -41.752  40.940  29.680  1.00  0.00    -0.057 A 
ATOM     51  H   UNL     1     -42.587  39.376  30.855  1.00  0.00     0.066 H 
ATOM     52  C   UNL     1     -41.867  41.713  28.473  1.00  0.00    -0.045 A 
ATOM     53  H   UNL     1     -42.975  42.044  26.700  1.00  0.00     0.082 H 
ATOM     54  H   UNL     1     -40.932  41.156  30.357  1.00  0.00     0.062 H 
ATOM     55  H   UNL     1     -41.132  42.487  28.274  1.00  0.00     0.064 H 
ENDBRANCH  37  40
ENDBRANCH  33  36
ENDBRANCH   6  33
TORSDOF 9
ENDMDL
MODEL 4
REMARK VINA RESULT:      -9.2      1.916      2.629
REMARK SMILES CC(C)(C)NCc1cc2ccc(CNC(=O)c3cc(=O)n4ccccc4n3)cc2[nH]1
REMARK SMILES IDX 7 1 8 2 9 3 10 4 11 5 12 6 28 7 29 8 30 9 6 15 5 18 2 20
REMARK SMILES IDX 1 21 3 25 4 29 13 33 14 36 15 37 16 39 17 40 18 41 27 42
REMARK SMILES IDX 19 43 26 45 20 46 21 47 25 48 22 49 24 50 23 52
REMARK H PARENT 8 10 10 11 11 12 28 13 30 14 6 16 6 17 5 19 1 22 1 23 1 24
REMARK H PARENT 3 26 3 27 3 28 4 30 4 31 4 32 13 34 13 35 14 38 18 44 25 51
REMARK H PARENT 22 53 24 54 23 55
REMARK Flexibility Score: inf
ROOT
ATOM      1  C   UNL     1     -47.964  31.573  24.172  1.00  0.00     0.030 A 
ATOM      2  C   UNL     1     -46.697  32.076  24.391  1.00  0.00    -0.032 A 
ATOM      3  C   UNL     1     -46.801  33.132  25.340  1.00  0.00    -0.000 A 
ATOM      4  C   UNL     1     -45.873  34.001  25.941  1.00  0.00    -0.052 A 
ATOM      5  C   UNL     1     -46.323  34.953  26.864  1.00  0.00    -0.057 A 
ATOM      6  C   UNL     1     -47.679  35.051  27.203  1.00  0.00    -0.027 A 
ATOM      7  C   UNL     1     -48.617  34.195  26.600  1.00  0.00    -0.033 A 
ATOM      8  C   UNL     1     -48.148  33.250  25.680  1.00  0.00     0.046 A 
ATOM      9  N   UNL     1     -48.828  32.298  24.958  1.00  0.00    -0.357 N 
ATOM     10  H   UNL     1     -45.788  31.725  23.921  1.00  0.00     0.065 H 
ATOM     11  H   UNL     1     -44.817  33.939  25.693  1.00  0.00     0.063 H 
ATOM     12  H   UNL     1     -45.600  35.629  27.320  1.00  0.00     0.063 H 
ATOM     13  H   UNL     1     -49.674  34.260  26.839  1.00  0.00     0.065 H 
ATOM     14  H   UNL     1     -49.822  32.117  25.012  1.00  0.00     0.166 HD
ENDROOT
BRANCH   1  15
ATOM     15  C   UNL     1     -48.450  30.480  23.283  1.00  0.00     0.036 C 
ATOM     16  H   UNL     1     -48.069  29.531  23.676  1.00  0.00     0.049 H 
ATOM     17  H   UNL     1     -49.544  30.452  23.316  1.00  0.00     0.049 H 
BRANCH  15  18
ATOM     18  N   UNL     1     -47.968  30.727  21.926  1.00  0.00    -0.307 NA
ATOM     19  H   UNL     1     -47.482  31.626  21.935  1.00  0.00     0.123 HD
BRANCH  18  20
ATOM     20  C   UNL     1     -48.999  30.751  20.873  1.00  0.00     0.010 C 
BRANCH  20  21
ATOM     21  C   UNL     1     -50.284  31.451  21.344  1.00  0.00    -0.047 C 
ATOM     22  H   UNL     1     -50.469  31.294  22.413  1.00  0.00     0.025 H 
ATOM     23  H   UNL     1     -51.160  31.091  20.793  1.00  0.00     0.025 H 
ATOM     24  H   UNL     1     -50.220  32.535  21.188  1.00  0.00     0.025 H 
ENDBRANCH  20  21
BRANCH  20  25
ATOM     25  C   UNL     1     -48.488  31.406  19.579  1.00  0.00    -0.047 C 
ATOM     26  H   UNL     1     -49.291  31.548  18.847  1.00  0.00     0.025 H 
ATOM     27  H   UNL     1     -47.724  30.782  19.100  1.00  0.00     0.025 H 
ATOM     28  H   UNL     1     -48.035  32.384  19.778  1.00  0.00     0.025 H 
ENDBRANCH  20  25
BRANCH  20  29
ATOM     29  C   UNL     1     -49.335  29.277  20.573  1.00  0.00    -0.047 C 
ATOM     30  H   UNL     1     -48.586  28.819  19.916  1.00  0.00     0.025 H 
ATOM     31  H   UNL     1     -50.307  29.185  20.075  1.00  0.00     0.025 H 
ATOM     32  H   UNL     1     -49.381  28.681  21.494  1.00  0.00     0.025 H 
ENDBRANCH  20  29
ENDBRANCH  18  20
ENDBRANCH  15  18
ENDBRANCH   1  15
BRANCH   6  33
ATOM     33  C   UNL     1     -48.134  36.103  28.184  1.00  0.00     0.043 C 
ATOM     34  H   UNL     1     -49.112  36.502  27.893  1.00  0.00     0.054 H 
ATOM     35  H   UNL     1     -48.246  35.666  29.183  1.00  0.00     0.054 H 
BRANCH  33  36
ATOM     36  N   UNL     1     -47.211  37.209  28.212  1.00  0.00    -0.347 N 
ATOM     37  C   UNL     1     -46.273  37.371  29.202  1.00  0.00     0.270 C 
ATOM     38  H   UNL     1     -47.072  37.761  27.372  1.00  0.00     0.164 HD
ATOM     39  O   UNL     1     -46.216  36.695  30.222  1.00  0.00    -0.268 OA
BRANCH  37  40
ATOM     40  C   UNL     1     -45.297  38.480  28.889  1.00  0.00     0.136 A 
ATOM     41  C   UNL     1     -44.328  38.686  29.784  1.00  0.00     0.035 A 
ATOM     42  N   UNL     1     -45.454  39.194  27.723  1.00  0.00    -0.225 NA
ATOM     43  C   UNL     1     -43.351  39.750  29.518  1.00  0.00     0.258 A 
ATOM     44  H   UNL     1     -44.213  38.116  30.697  1.00  0.00     0.071 H 
ATOM     45  C   UNL     1     -44.586  40.130  27.490  1.00  0.00     0.140 A 
ATOM     46  O   UNL     1     -42.457  39.950  30.340  1.00  0.00    -0.269 OA
ATOM     47  N   UNL     1     -43.529  40.451  28.335  1.00  0.00    -0.268 N 
ATOM     48  C   UNL     1     -44.714  40.926  26.236  1.00  0.00    -0.019 A 
ATOM     49  C   UNL     1     -42.641  41.471  28.012  1.00  0.00     0.014 A 
ATOM     50  C   UNL     1     -43.834  41.899  25.970  1.00  0.00    -0.057 A 
ATOM     51  H   UNL     1     -45.533  40.683  25.571  1.00  0.00     0.066 H 
ATOM     52  C   UNL     1     -42.762  42.183  26.885  1.00  0.00    -0.045 A 
ATOM     53  H   UNL     1     -41.838  41.669  28.719  1.00  0.00     0.082 H 
ATOM     54  H   UNL     1     -43.910  42.489  25.062  1.00  0.00     0.062 H 
ATOM     55  H   UNL     1     -42.063  42.977  26.644  1.00  0.00     0.064 H 
ENDBRANCH  37  40
ENDBRANCH  33  36
ENDBRANCH   6  33
TORSDOF 9
ENDMDL
MODEL 5
REMARK VINA RESULT:      -9.1      2.021      3.347
REMARK SMILES CC(C)(C)NCc1cc2ccc(CNC(=O)c3cc(=O)n4ccccc4n3)cc2[nH]1
REMARK SMILES IDX 7 1 8 2 9 3 10 4 11 5 12 6 28 7 29 8 30 9 6 15 5 18 2 20
REMARK SMILES IDX 1 21 3 25 4 29 13 33 14 36 15 37 16 39 17 40 18 41 27 42
REMARK SMILES IDX 19 43 26 45 20 46 21 47 25 48 22 49 24 50 23 52
REMARK H PARENT 8 10 10 11 11 12 28 13 30 14 6 16 6 17 5 19 1 22 1 23 1 24
REMARK H PARENT 3 26 3 27 3 28 4 30 4 31 4 32 13 34 13 35 14 38 18 44 25 51
REMARK H PARENT 22 53 24 54 23 55
REMARK Flexibility Score: inf
ROOT
ATOM      1  C   UNL     1     -46.752  32.250  24.800  1.00  0.00     0.030 A 
ATOM      2  C   UNL     1     -47.942  32.839  25.177  1.00  0.00    -0.032 A 
ATOM      3  C   UNL     1     -47.646  33.873  26.109  1.00  0.00    -0.000 A 
ATOM      4  C   UNL     1     -48.427  34.798  26.825  1.00  0.00    -0.052 A 
ATOM      5  C   UNL     1     -47.799  35.709  27.682  1.00  0.00    -0.057 A 
ATOM      6  C   UNL     1     -46.406  35.718  27.836  1.00  0.00    -0.027 A 
ATOM      7  C   UNL     1     -45.616  34.791  27.134  1.00  0.00    -0.033 A 
ATOM      8  C   UNL     1     -46.263  33.888  26.282  1.00  0.00     0.046 A 
ATOM      9  N   UNL     1     -45.747  32.896  25.482  1.00  0.00    -0.357 N 
ATOM     10  H   UNL     1     -48.925  32.559  24.823  1.00  0.00     0.065 H 
ATOM     11  H   UNL     1     -49.508  34.807  26.717  1.00  0.00     0.063 H 
ATOM     12  H   UNL     1     -48.410  36.417  28.240  1.00  0.00     0.063 H 
ATOM     13  H   UNL     1     -44.536  34.773  27.246  1.00  0.00     0.065 H 
ATOM     14  H   UNL     1     -44.765  32.681  25.369  1.00  0.00     0.166 HD
ENDROOT
BRANCH   1  15
ATOM     15  C   UNL     1     -46.461  31.124  23.869  1.00  0.00     0.036 C 
ATOM     16  H   UNL     1     -46.711  31.453  22.854  1.00  0.00     0.049 H 
ATOM     17  H   UNL     1     -45.389  30.899  23.903  1.00  0.00     0.049 H 
BRANCH  15  18
ATOM     18  N   UNL     1     -47.257  29.966  24.265  1.00  0.00    -0.307 NA
ATOM     19  H   UNL     1     -46.609  29.199  24.451  1.00  0.00     0.123 HD
BRANCH  18  20
ATOM     20  C   UNL     1     -48.264  29.514  23.287  1.00  0.00     0.010 C 
BRANCH  20  21
ATOM     21  C   UNL     1     -49.674  30.015  23.643  1.00  0.00    -0.047 C 
ATOM     22  H   UNL     1     -50.286  29.228  24.098  1.00  0.00     0.025 H 
ATOM     23  H   UNL     1     -50.201  30.384  22.756  1.00  0.00     0.025 H 
ATOM     24  H   UNL     1     -49.626  30.839  24.365  1.00  0.00     0.025 H 
ENDBRANCH  20  21
BRANCH  20  25
ATOM     25  C   UNL     1     -47.905  29.933  21.852  1.00  0.00    -0.047 C 
ATOM     26  H   UNL     1     -46.824  30.051  21.717  1.00  0.00     0.025 H 
ATOM     27  H   UNL     1     -48.367  30.895  21.598  1.00  0.00     0.025 H 
ATOM     28  H   UNL     1     -48.259  29.197  21.120  1.00  0.00     0.025 H 
ENDBRANCH  20  25
BRANCH  20  29
ATOM     29  C   UNL     1     -48.266  27.975  23.359  1.00  0.00    -0.047 C 
ATOM     30  H   UNL     1     -49.230  27.589  23.707  1.00  0.00     0.025 H 
ATOM     31  H   UNL     1     -47.498  27.610  24.052  1.00  0.00     0.025 H 
ATOM     32  H   UNL     1     -48.061  27.528  22.377  1.00  0.00     0.025 H 
ENDBRANCH  20  29
ENDBRANCH  18  20
ENDBRANCH  15  18
ENDBRANCH   1  15
BRANCH   6  33
ATOM     33  C   UNL     1     -45.762  36.698  28.785  1.00  0.00     0.043 C 
ATOM     34  H   UNL     1     -46.383  36.833  29.677  1.00  0.00     0.054 H 
ATOM     35  H   UNL     1     -44.791  36.318  29.121  1.00  0.00     0.054 H 
BRANCH  33  36
ATOM     36  N   UNL     1     -45.617  37.991  28.165  1.00  0.00    -0.347 N 
ATOM     37  C   UNL     1     -44.749  38.947  28.631  1.00  0.00     0.270 C 
ATOM     38  H   UNL     1     -45.976  38.134  27.227  1.00  0.00     0.164 HD
ATOM     39  O   UNL     1     -44.126  38.867  29.683  1.00  0.00    -0.268 OA
BRANCH  37  40
ATOM     40  C   UNL     1     -44.630  40.120  27.688  1.00  0.00     0.136 A 
ATOM     41  C   UNL     1     -45.764  40.543  27.123  1.00  0.00     0.035 A 
ATOM     42  N   UNL     1     -43.390  40.680  27.476  1.00  0.00    -0.225 NA
ATOM     43  C   UNL     1     -45.698  41.687  26.204  1.00  0.00     0.258 A 
ATOM     44  H   UNL     1     -46.734  40.098  27.300  1.00  0.00     0.071 H 
ATOM     45  C   UNL     1     -43.338  41.693  26.666  1.00  0.00     0.140 A 
ATOM     46  O   UNL     1     -46.736  42.081  25.675  1.00  0.00    -0.269 OA
ATOM     47  N   UNL     1     -44.438  42.234  26.011  1.00  0.00    -0.268 N 
ATOM     48  C   UNL     1     -42.017  42.333  26.410  1.00  0.00    -0.019 A 
ATOM     49  C   UNL     1     -44.296  43.323  25.157  1.00  0.00     0.014 A 
ATOM     50  C   UNL     1     -41.931  43.379  25.580  1.00  0.00    -0.057 A 
ATOM     51  H   UNL     1     -41.154  41.920  26.917  1.00  0.00     0.066 H 
ATOM     52  C   UNL     1     -43.107  43.893  24.930  1.00  0.00    -0.045 A 
ATOM     53  H   UNL     1     -45.199  43.695  24.677  1.00  0.00     0.082 H 
ATOM     54  H   UNL     1     -40.978  43.859  25.380  1.00  0.00     0.062 H 
ATOM     55  H   UNL     1     -43.008  44.742  24.262  1.00  0.00     0.064 H 
ENDBRANCH  37  40
ENDBRANCH  33  36
ENDBRANCH   6  33
TORSDOF 9
ENDMDL
MODEL 6
REMARK VINA RESULT:      -9.0      2.575      4.761
REMARK SMILES CC(C)(C)NCc1cc2ccc(CNC(=O)c3cc(=O)n4ccccc4n3)cc2[nH]1
REMARK SMILES IDX 7 1 8 2 9 3 10 4 11 5 12 6 28 7 29 8 30 9 6 15 5 18 2 20
REMARK SMILES IDX 1 21 3 25 4 29 13 33 14 36 15 37 16 39 17 40 18 41 27 42
REMARK SMILES IDX 19 43 26 45 20 46 21 47 25 48 22 49 24 50 23 52
REMARK H PARENT 8 10 10 11 11 12 28 13 30 14 6 16 6 17 5 19 1 22 1 23 1 24
REMARK H PARENT 3 26 3 27 3 28 4 30 4 31 4 32 13 34 13 35 14 38 18 44 25 51
REMARK H PARENT 22 53 24 54 23 55
REMARK Flexibility Score: inf
ROOT
ATOM      1  C   UNL     1     -46.861  33.655  26.707  1.00  0.00     0.030 A 
ATOM      2  C   UNL     1     -47.648  34.736  26.363  1.00  0.00    -0.032 A 
ATOM      3  C   UNL     1     -47.082  35.899  26.955  1.00  0.00    -0.000 A 
ATOM      4  C   UNL     1     -47.431  37.262  26.961  1.00  0.00    -0.052 A 
ATOM      5  C   UNL     1     -46.631  38.172  27.663  1.00  0.00    -0.057 A 
ATOM      6  C   UNL     1     -45.487  37.749  28.355  1.00  0.00    -0.027 A 
ATOM      7  C   UNL     1     -45.136  36.388  28.365  1.00  0.00    -0.033 A 
ATOM      8  C   UNL     1     -45.949  35.494  27.658  1.00  0.00     0.046 A 
ATOM      9  N   UNL     1     -45.840  34.133  27.493  1.00  0.00    -0.357 N 
ATOM     10  H   UNL     1     -48.539  34.699  25.750  1.00  0.00     0.065 H 
ATOM     11  H   UNL     1     -48.311  37.609  26.428  1.00  0.00     0.063 H 
ATOM     12  H   UNL     1     -46.910  39.224  27.670  1.00  0.00     0.063 H 
ATOM     13  H   UNL     1     -44.261  36.037  28.904  1.00  0.00     0.065 H 
ATOM     14  H   UNL     1     -45.097  33.553  27.862  1.00  0.00     0.166 HD
ENDROOT
BRANCH   1  15
ATOM     15  C   UNL     1     -46.980  32.205  26.381  1.00  0.00     0.036 C 
ATOM     16  H   UNL     1     -46.391  32.015  25.477  1.00  0.00     0.049 H 
ATOM     17  H   UNL     1     -46.551  31.619  27.200  1.00  0.00     0.049 H 
BRANCH  15  18
ATOM     18  N   UNL     1     -48.389  31.882  26.178  1.00  0.00    -0.307 NA
ATOM     19  H   UNL     1     -48.708  31.379  27.008  1.00  0.00     0.123 HD
BRANCH  18  20
ATOM     20  C   UNL     1     -48.697  31.076  24.983  1.00  0.00     0.010 C 
BRANCH  20  21
ATOM     21  C   UNL     1     -48.886  29.589  25.327  1.00  0.00    -0.047 C 
ATOM     22  H   UNL     1     -48.669  28.939  24.472  1.00  0.00     0.025 H 
ATOM     23  H   UNL     1     -49.911  29.383  25.656  1.00  0.00     0.025 H 
ATOM     24  H   UNL     1     -48.213  29.286  26.138  1.00  0.00     0.025 H 
ENDBRANCH  20  21
BRANCH  20  25
ATOM     25  C   UNL     1     -49.932  31.602  24.233  1.00  0.00    -0.047 C 
ATOM     26  H   UNL     1     -49.735  32.562  23.743  1.00  0.00     0.025 H 
ATOM     27  H   UNL     1     -50.771  31.759  24.922  1.00  0.00     0.025 H 
ATOM     28  H   UNL     1     -50.266  30.893  23.467  1.00  0.00     0.025 H 
ENDBRANCH  20  25
BRANCH  20  29
ATOM     29  C   UNL     1     -47.472  31.205  24.056  1.00  0.00    -0.047 C 
ATOM     30  H   UNL     1     -46.569  31.470  24.617  1.00  0.00     0.025 H 
ATOM     31  H   UNL     1     -47.628  31.984  23.300  1.00  0.00     0.025 H 
ATOM     32  H   UNL     1     -47.272  30.266  23.524  1.00  0.00     0.025 H 
ENDBRANCH  20  29
ENDBRANCH  18  20
ENDBRANCH  15  18
ENDBRANCH   1  15
BRANCH   6  33
ATOM     33  C   UNL     1     -44.659  38.752  29.120  1.00  0.00     0.043 C 
ATOM     34  H   UNL     1     -45.156  39.023  30.058  1.00  0.00     0.054 H 
ATOM     35  H   UNL     1     -43.687  38.320  29.380  1.00  0.00     0.054 H 
BRANCH  33  36
ATOM     36  N   UNL     1     -44.492  39.963  28.358  1.00  0.00    -0.347 N 
ATOM     37  C   UNL     1     -43.369  40.748  28.445  1.00  0.00     0.270 C 
ATOM     38  H   UNL     1     -45.096  40.136  27.561  1.00  0.00     0.164 HD
ATOM     39  O   UNL     1     -42.472  40.590  29.266  1.00  0.00    -0.268 OA
BRANCH  37  40
ATOM     40  C   UNL     1     -43.348  41.835  27.398  1.00  0.00     0.136 A 
ATOM     41  C   UNL     1     -42.177  42.054  26.794  1.00  0.00     0.035 A 
ATOM     42  N   UNL     1     -44.512  42.518  27.125  1.00  0.00    -0.225 NA
ATOM     43  C   UNL     1     -42.111  43.098  25.763  1.00  0.00     0.258 A 
ATOM     44  H   UNL     1     -41.268  41.509  27.015  1.00  0.00     0.071 H 
ATOM     45  C   UNL     1     -44.449  43.436  26.210  1.00  0.00     0.140 A 
ATOM     46  O   UNL     1     -41.035  43.310  25.205  1.00  0.00    -0.269 OA
ATOM     47  N   UNL     1     -43.297  43.767  25.505  1.00  0.00    -0.268 N 
ATOM     48  C   UNL     1     -45.687  44.198  25.879  1.00  0.00    -0.019 A 
ATOM     49  C   UNL     1     -43.315  44.768  24.538  1.00  0.00     0.014 A 
ATOM     50  C   UNL     1     -45.653  45.152  24.940  1.00  0.00    -0.057 A 
ATOM     51  H   UNL     1     -46.589  43.947  26.422  1.00  0.00     0.066 H 
ATOM     52  C   UNL     1     -44.429  45.449  24.246  1.00  0.00    -0.045 A 
ATOM     53  H   UNL     1     -42.378  44.975  24.026  1.00  0.00     0.082 H 
ATOM     54  H   UNL     1     -46.544  45.717  24.685  1.00  0.00     0.062 H 
ATOM     55  H   UNL     1     -44.431  46.227  23.490  1.00  0.00     0.064 H 
ENDBRANCH  37  40
ENDBRANCH  33  36
ENDBRANCH   6  33
TORSDOF 9
ENDMDL
MODEL 7
REMARK VINA RESULT:      -8.7      2.660     10.540
REMARK SMILES CC(C)(C)NCc1cc2ccc(CNC(=O)c3cc(=O)n4ccccc4n3)cc2[nH]1
REMARK SMILES IDX 7 1 8 2 9 3 10 4 11 5 12 6 28 7 29 8 30 9 6 15 5 18 2 20
REMARK SMILES IDX 1 21 3 25 4 29 13 33 14 36 15 37 16 39 17 40 18 41 27 42
REMARK SMILES IDX 19 43 26 45 20 46 21 47 25 48 22 49 24 50 23 52
REMARK H PARENT 8 10 10 11 11 12 28 13 30 14 6 16 6 17 5 19 1 22 1 23 1 24
REMARK H PARENT 3 26 3 27 3 28 4 30 4 31 4 32 13 34 13 35 14 38 18 44 25 51
REMARK H PARENT 22 53 24 54 23 55
REMARK Flexibility Score: inf
ROOT
ATOM      1  C   UNL     1     -45.380  41.095  26.191  1.00  0.00     0.030 A 
ATOM      2  C   UNL     1     -44.492  40.401  26.988  1.00  0.00    -0.032 A 
ATOM      3  C   UNL     1     -45.128  39.200  27.413  1.00  0.00    -0.000 A 
ATOM      4  C   UNL     1     -44.735  38.119  28.221  1.00  0.00    -0.052 A 
ATOM      5  C   UNL     1     -45.630  37.065  28.441  1.00  0.00    -0.057 A 
ATOM      6  C   UNL     1     -46.909  37.068  27.867  1.00  0.00    -0.027 A 
ATOM      7  C   UNL     1     -47.317  38.149  27.067  1.00  0.00    -0.033 A 
ATOM      8  C   UNL     1     -46.407  39.193  26.858  1.00  0.00     0.046 A 
ATOM      9  N   UNL     1     -46.534  40.350  26.127  1.00  0.00    -0.357 N 
ATOM     10  H   UNL     1     -43.490  40.718  27.242  1.00  0.00     0.065 H 
ATOM     11  H   UNL     1     -43.747  38.097  28.672  1.00  0.00     0.063 H 
ATOM     12  H   UNL     1     -45.323  36.234  29.074  1.00  0.00     0.063 H 
ATOM     13  H   UNL     1     -48.307  38.178  26.621  1.00  0.00     0.065 H 
ATOM     14  H   UNL     1     -47.343  40.616  25.582  1.00  0.00     0.166 HD
ENDROOT
BRANCH   1  15
ATOM     15  C   UNL     1     -45.259  42.404  25.489  1.00  0.00     0.036 C 
ATOM     16  H   UNL     1     -46.178  42.564  24.914  1.00  0.00     0.049 H 
ATOM     17  H   UNL     1     -45.175  43.203  26.233  1.00  0.00     0.049 H 
BRANCH  15  18
ATOM     18  N   UNL     1     -44.087  42.365  24.619  1.00  0.00    -0.307 NA
ATOM     19  H   UNL     1     -43.626  41.465  24.768  1.00  0.00     0.123 HD
BRANCH  18  20
ATOM     20  C   UNL     1     -43.103  43.445  24.818  1.00  0.00     0.010 C 
BRANCH  20  21
ATOM     21  C   UNL     1     -43.774  44.759  25.251  1.00  0.00    -0.047 C 
ATOM     22  H   UNL     1     -43.084  45.409  25.801  1.00  0.00     0.025 H 
ATOM     23  H   UNL     1     -44.644  44.571  25.889  1.00  0.00     0.025 H 
ATOM     24  H   UNL     1     -44.121  45.327  24.379  1.00  0.00     0.025 H 
ENDBRANCH  20  21
BRANCH  20  25
ATOM     25  C   UNL     1     -42.012  43.054  25.829  1.00  0.00    -0.047 C 
ATOM     26  H   UNL     1     -41.513  42.119  25.553  1.00  0.00     0.025 H 
ATOM     27  H   UNL     1     -42.440  42.906  26.828  1.00  0.00     0.025 H 
ATOM     28  H   UNL     1     -41.247  43.834  25.913  1.00  0.00     0.025 H 
ENDBRANCH  20  25
BRANCH  20  29
ATOM     29  C   UNL     1     -42.437  43.671  23.446  1.00  0.00    -0.047 C 
ATOM     30  H   UNL     1     -41.465  43.169  23.383  1.00  0.00     0.025 H 
ATOM     31  H   UNL     1     -42.267  44.738  23.260  1.00  0.00     0.025 H 
ATOM     32  H   UNL     1     -43.064  43.291  22.629  1.00  0.00     0.025 H 
ENDBRANCH  20  29
ENDBRANCH  18  20
ENDBRANCH  15  18
ENDBRANCH   1  15
BRANCH   6  33
ATOM     33  C   UNL     1     -47.859  35.928  28.142  1.00  0.00     0.043 C 
ATOM     34  H   UNL     1     -47.543  35.374  29.033  1.00  0.00     0.054 H 
ATOM     35  H   UNL     1     -48.865  36.313  28.339  1.00  0.00     0.054 H 
BRANCH  33  36
ATOM     36  N   UNL     1     -47.873  34.998  27.042  1.00  0.00    -0.347 N 
ATOM     37  C   UNL     1     -47.134  33.841  27.035  1.00  0.00     0.270 C 
ATOM     38  H   UNL     1     -48.614  35.058  26.352  1.00  0.00     0.164 HD
ATOM     39  O   UNL     1     -46.291  33.550  27.876  1.00  0.00    -0.268 OA
BRANCH  37  40
ATOM     40  C   UNL     1     -47.486  32.944  25.873  1.00  0.00     0.136 A 
ATOM     41  C   UNL     1     -48.784  32.687  25.694  1.00  0.00     0.035 A 
ATOM     42  N   UNL     1     -46.472  32.460  25.077  1.00  0.00    -0.225 NA
ATOM     43  C   UNL     1     -49.173  31.824  24.571  1.00  0.00     0.258 A 
ATOM     44  H   UNL     1     -49.573  33.075  26.325  1.00  0.00     0.071 H 
ATOM     45  C   UNL     1     -46.822  31.702  24.083  1.00  0.00     0.140 A 
ATOM     46  O   UNL     1     -50.366  31.577  24.402  1.00  0.00    -0.269 OA
ATOM     47  N   UNL     1     -48.134  31.353  23.783  1.00  0.00    -0.268 N 
ATOM     48  C   UNL     1     -45.758  31.159  23.192  1.00  0.00    -0.019 A 
ATOM     49  C   UNL     1     -48.425  30.533  22.697  1.00  0.00     0.014 A 
ATOM     50  C   UNL     1     -46.087  30.373  22.160  1.00  0.00    -0.057 A 
ATOM     51  H   UNL     1     -44.732  31.426  23.417  1.00  0.00     0.066 H 
ATOM     52  C   UNL     1     -47.464  30.048  21.902  1.00  0.00    -0.045 A 
ATOM     53  H   UNL     1     -49.472  30.300  22.522  1.00  0.00     0.082 H 
ATOM     54  H   UNL     1     -45.327  29.968  21.499  1.00  0.00     0.062 H 
ATOM     55  H   UNL     1     -47.703  29.409  21.058  1.00  0.00     0.064 H 
ENDBRANCH  37  40
ENDBRANCH  33  36
ENDBRANCH   6  33
TORSDOF 9
ENDMDL
