MODEL 1
REMARK VINA RESULT:     -10.0      0.000      0.000
REMARK SMILES CCc1cc(N(C)C2CC2)c2ccc(OCc3cncc(-n4cc(-c5ccn(C)n5)c5c(N)ncnc54)c3)cc2n1
REMARK SMILES IDX 16 1 15 4 14 5 3 6 4 7 41 8 5 9 40 11 11 12 39 13 12 14
REMARK SMILES IDX 13 16 2 19 1 22 6 26 7 27 8 31 9 32 10 33 17 39 18 40 38 41
REMARK SMILES IDX 19 42 21 44 20 46 22 48 23 49 37 50 24 51 31 53 36 54 32 55
REMARK SMILES IDX 35 56 34 57 25 59 26 60 30 61 27 62 28 64 29 66 33 70
REMARK H PARENT 16 2 16 3 4 10 39 15 12 17 13 18 2 20 2 21 1 23 1 24 1 25 7 28
REMARK H PARENT 7 29 7 30 8 34 9 35 9 36 10 37 10 38 18 43 38 45 20 47 23 52
REMARK H PARENT 35 58 26 63 27 65 29 67 29 68 29 69 33 71 33 72
REMARK Flexibility Score: inf
ROOT
ATOM      1  C   UNL     1     -47.334  35.125  26.358  1.00  0.00     0.115 C 
ATOM      2  H   UNL     1     -48.064  35.590  25.683  1.00  0.00     0.076 H 
ATOM      3  H   UNL     1     -46.481  34.842  25.730  1.00  0.00     0.076 H 
ENDROOT
BRANCH   1   4
ATOM      4  O   UNL     1     -47.849  33.913  26.915  1.00  0.00    -0.489 OA
BRANCH   4   5
ATOM      5  C   UNL     1     -47.886  32.796  26.126  1.00  0.00     0.122 A 
ATOM      6  C   UNL     1     -46.261  31.038  22.007  1.00  0.00     0.043 A 
ATOM      7  C   UNL     1     -46.889  29.816  22.193  1.00  0.00    -0.016 A 
ATOM      8  N   UNL     1     -46.342  32.043  22.908  1.00  0.00    -0.253 NA
ATOM      9  C   UNL     1     -47.629  29.601  23.360  1.00  0.00     0.048 A 
ATOM     10  H   UNL     1     -46.791  29.035  21.447  1.00  0.00     0.066 H 
ATOM     11  C   UNL     1     -47.061  31.854  24.028  1.00  0.00     0.076 A 
ATOM     12  C   UNL     1     -47.735  30.649  24.308  1.00  0.00     0.024 A 
ATOM     13  C   UNL     1     -47.144  32.895  24.944  1.00  0.00     0.007 A 
ATOM     14  C   UNL     1     -48.488  30.553  25.500  1.00  0.00    -0.047 A 
ATOM     15  H   UNL     1     -46.614  33.819  24.725  1.00  0.00     0.069 H 
ATOM     16  C   UNL     1     -48.559  31.615  26.404  1.00  0.00    -0.019 A 
ATOM     17  H   UNL     1     -49.030  29.636  25.725  1.00  0.00     0.063 H 
ATOM     18  H   UNL     1     -49.139  31.472  27.309  1.00  0.00     0.066 H 
BRANCH   6  19
ATOM     19  C   UNL     1     -45.467  31.308  20.756  1.00  0.00    -0.013 C 
ATOM     20  H   UNL     1     -44.973  30.389  20.422  1.00  0.00     0.033 H 
ATOM     21  H   UNL     1     -44.670  32.026  20.983  1.00  0.00     0.033 H 
BRANCH  19  22
ATOM     22  C   UNL     1     -46.346  31.865  19.647  1.00  0.00    -0.060 C 
ATOM     23  H   UNL     1     -46.678  32.882  19.875  1.00  0.00     0.023 H 
ATOM     24  H   UNL     1     -47.236  31.238  19.520  1.00  0.00     0.023 H 
ATOM     25  H   UNL     1     -45.810  31.892  18.692  1.00  0.00     0.023 H 
ENDBRANCH  19  22
ENDBRANCH   6  19
BRANCH   9  26
ATOM     26  N   UNL     1     -48.261  28.336  23.596  1.00  0.00    -0.371 N 
BRANCH  26  27
ATOM     27  C   UNL     1     -47.267  27.389  24.121  1.00  0.00     0.007 C 
ATOM     28  H   UNL     1     -46.821  26.789  23.319  1.00  0.00     0.046 H 
ATOM     29  H   UNL     1     -47.727  26.711  24.847  1.00  0.00     0.046 H 
ATOM     30  H   UNL     1     -46.458  27.903  24.652  1.00  0.00     0.046 H 
ENDBRANCH  26  27
BRANCH  26  31
ATOM     31  C   UNL     1     -49.199  27.856  22.551  1.00  0.00     0.029 C 
ATOM     32  C   UNL     1     -50.476  27.116  22.839  1.00  0.00    -0.031 C 
ATOM     33  C   UNL     1     -50.526  28.511  22.283  1.00  0.00    -0.031 C 
ATOM     34  H   UNL     1     -48.657  27.566  21.650  1.00  0.00     0.053 H 
ATOM     35  H   UNL     1     -50.787  26.970  23.864  1.00  0.00     0.029 H 
ATOM     36  H   UNL     1     -50.739  26.298  22.180  1.00  0.00     0.029 H 
ATOM     37  H   UNL     1     -50.821  28.636  21.247  1.00  0.00     0.029 H 
ATOM     38  H   UNL     1     -50.865  29.310  22.928  1.00  0.00     0.029 H 
ENDBRANCH  26  31
ENDBRANCH   9  26
ENDBRANCH   4   5
ENDBRANCH   1   4
BRANCH   1  39
ATOM     39  C   UNL     1     -46.827  36.082  27.405  1.00  0.00     0.010 A 
ATOM     40  C   UNL     1     -46.920  35.792  28.759  1.00  0.00     0.034 A 
ATOM     41  C   UNL     1     -46.188  37.276  27.039  1.00  0.00    -0.028 A 
ATOM     42  N   UNL     1     -46.447  36.598  29.732  1.00  0.00    -0.262 NA
ATOM     43  H   UNL     1     -47.390  34.878  29.111  1.00  0.00     0.084 H 
ATOM     44  C   UNL     1     -45.693  38.146  28.015  1.00  0.00     0.066 A 
ATOM     45  H   UNL     1     -46.077  37.485  25.981  1.00  0.00     0.065 H 
ATOM     46  C   UNL     1     -45.852  37.753  29.342  1.00  0.00     0.051 A 
ATOM     47  H   UNL     1     -45.525  38.354  30.184  1.00  0.00     0.086 H 
BRANCH  44  48
ATOM     48  N   UNL     1     -45.047  39.382  27.689  1.00  0.00    -0.299 N 
ATOM     49  C   UNL     1     -45.352  40.167  26.593  1.00  0.00     0.021 A 
ATOM     50  C   UNL     1     -44.014  40.023  28.379  1.00  0.00     0.150 A 
ATOM     51  C   UNL     1     -44.563  41.298  26.603  1.00  0.00     0.033 A 
ATOM     52  H   UNL     1     -46.131  39.909  25.892  1.00  0.00     0.083 H 
ATOM     53  C   UNL     1     -43.678  41.200  27.705  1.00  0.00     0.071 A 
ATOM     54  N   UNL     1     -43.403  39.577  29.497  1.00  0.00    -0.218 NA
ATOM     55  C   UNL     1     -42.606  41.943  28.230  1.00  0.00     0.137 A 
ATOM     56  C   UNL     1     -42.423  40.384  29.917  1.00  0.00     0.120 A 
ATOM     57  N   UNL     1     -41.995  41.520  29.351  1.00  0.00    -0.219 NA
ATOM     58  H   UNL     1     -41.906  40.080  30.822  1.00  0.00     0.106 H 
BRANCH  51  59
ATOM     59  C   UNL     1     -44.648  42.380  25.627  1.00  0.00     0.095 A 
ATOM     60  C   UNL     1     -44.263  42.294  24.272  1.00  0.00    -0.016 A 
ATOM     61  N   UNL     1     -45.052  43.612  25.956  1.00  0.00    -0.173 NA
ATOM     62  C   UNL     1     -44.482  43.554  23.764  1.00  0.00     0.025 A 
ATOM     63  H   UNL     1     -43.874  41.438  23.739  1.00  0.00     0.066 H 
ATOM     64  N   UNL     1     -44.947  44.302  24.806  1.00  0.00    -0.275 N 
ATOM     65  H   UNL     1     -44.335  43.970  22.777  1.00  0.00     0.084 H 
BRANCH  64  66
ATOM     66  C   UNL     1     -45.308  45.699  24.781  1.00  0.00     0.030 C 
ATOM     67  H   UNL     1     -44.806  46.189  23.942  1.00  0.00     0.048 H 
ATOM     68  H   UNL     1     -46.392  45.773  24.661  1.00  0.00     0.048 H 
ATOM     69  H   UNL     1     -44.991  46.153  25.723  1.00  0.00     0.048 H 
ENDBRANCH  64  66
ENDBRANCH  51  59
BRANCH  55  70
ATOM     70  N   UNL     1     -42.079  43.091  27.649  1.00  0.00    -0.383 N 
ATOM     71  H   UNL     1     -42.550  43.908  28.022  1.00  0.00     0.158 HD
ATOM     72  H   UNL     1     -41.066  43.133  27.671  1.00  0.00     0.158 HD
ENDBRANCH  55  70
ENDBRANCH  44  48
ENDBRANCH   1  39
TORSDOF 12
ENDMDL
MODEL 2
REMARK VINA RESULT:      -9.8      1.745      2.838
REMARK SMILES CCc1cc(N(C)C2CC2)c2ccc(OCc3cncc(-n4cc(-c5ccn(C)n5)c5c(N)ncnc54)c3)cc2n1
REMARK SMILES IDX 16 1 15 4 14 5 3 6 4 7 41 8 5 9 40 11 11 12 39 13 12 14
REMARK SMILES IDX 13 16 2 19 1 22 6 26 7 27 8 31 9 32 10 33 17 39 18 40 38 41
REMARK SMILES IDX 19 42 21 44 20 46 22 48 23 49 37 50 24 51 31 53 36 54 32 55
REMARK SMILES IDX 35 56 34 57 25 59 26 60 30 61 27 62 28 64 29 66 33 70
REMARK H PARENT 16 2 16 3 4 10 39 15 12 17 13 18 2 20 2 21 1 23 1 24 1 25 7 28
REMARK H PARENT 7 29 7 30 8 34 9 35 9 36 10 37 10 38 18 43 38 45 20 47 23 52
REMARK H PARENT 35 58 26 63 27 65 29 67 29 68 29 69 33 71 33 72
REMARK Flexibility Score: inf
ROOT
ATOM      1  C   UNL     1     -47.034  33.448  26.040  1.00  0.00     0.115 C 
ATOM      2  H   UNL     1     -45.949  33.434  25.874  1.00  0.00     0.076 H 
ATOM      3  H   UNL     1     -47.231  32.689  26.805  1.00  0.00     0.076 H 
ENDROOT
BRANCH   1   4
ATOM      4  O   UNL     1     -47.738  33.035  24.865  1.00  0.00    -0.489 OA
BRANCH   4   5
ATOM      5  C   UNL     1     -48.119  31.725  24.760  1.00  0.00     0.122 A 
ATOM      6  C   UNL     1     -49.362  28.408  21.575  1.00  0.00     0.043 A 
ATOM      7  C   UNL     1     -49.524  27.429  22.543  1.00  0.00    -0.016 A 
ATOM      8  N   UNL     1     -48.978  29.670  21.872  1.00  0.00    -0.253 NA
ATOM      9  C   UNL     1     -49.273  27.748  23.881  1.00  0.00     0.048 A 
ATOM     10  H   UNL     1     -49.826  26.427  22.259  1.00  0.00     0.066 H 
ATOM     11  C   UNL     1     -48.747  29.992  23.156  1.00  0.00     0.076 A 
ATOM     12  C   UNL     1     -48.884  29.070  24.212  1.00  0.00     0.024 A 
ATOM     13  C   UNL     1     -48.360  31.293  23.451  1.00  0.00     0.007 A 
ATOM     14  C   UNL     1     -48.644  29.509  25.533  1.00  0.00    -0.047 A 
ATOM     15  H   UNL     1     -48.249  31.998  22.631  1.00  0.00     0.069 H 
ATOM     16  C   UNL     1     -48.260  30.823  25.805  1.00  0.00    -0.019 A 
ATOM     17  H   UNL     1     -48.761  28.815  26.363  1.00  0.00     0.063 H 
ATOM     18  H   UNL     1     -48.073  31.093  26.838  1.00  0.00     0.066 H 
BRANCH   6  19
ATOM     19  C   UNL     1     -49.637  28.103  20.125  1.00  0.00    -0.013 C 
ATOM     20  H   UNL     1     -48.714  28.199  19.543  1.00  0.00     0.033 H 
ATOM     21  H   UNL     1     -50.336  28.848  19.727  1.00  0.00     0.033 H 
BRANCH  19  22
ATOM     22  C   UNL     1     -50.226  26.712  19.950  1.00  0.00    -0.060 C 
ATOM     23  H   UNL     1     -51.317  26.751  19.861  1.00  0.00     0.023 H 
ATOM     24  H   UNL     1     -49.978  26.085  20.812  1.00  0.00     0.023 H 
ATOM     25  H   UNL     1     -49.834  26.226  19.051  1.00  0.00     0.023 H 
ENDBRANCH  19  22
ENDBRANCH   6  19
BRANCH   9  26
ATOM     26  N   UNL     1     -49.399  26.748  24.902  1.00  0.00    -0.371 N 
BRANCH  26  27
ATOM     27  C   UNL     1     -50.758  26.790  25.457  1.00  0.00     0.007 C 
ATOM     28  H   UNL     1     -50.745  26.797  26.553  1.00  0.00     0.046 H 
ATOM     29  H   UNL     1     -51.337  25.924  25.123  1.00  0.00     0.046 H 
ATOM     30  H   UNL     1     -51.307  27.675  25.117  1.00  0.00     0.046 H 
ENDBRANCH  26  27
BRANCH  26  31
ATOM     31  C   UNL     1     -48.261  26.617  25.847  1.00  0.00     0.029 C 
ATOM     32  C   UNL     1     -48.004  25.403  26.696  1.00  0.00    -0.031 C 
ATOM     33  C   UNL     1     -47.067  25.746  25.572  1.00  0.00    -0.031 C 
ATOM     34  H   UNL     1     -48.014  27.584  26.288  1.00  0.00     0.053 H 
ATOM     35  H   UNL     1     -48.633  24.530  26.581  1.00  0.00     0.029 H 
ATOM     36  H   UNL     1     -47.660  25.566  27.710  1.00  0.00     0.029 H 
ATOM     37  H   UNL     1     -46.090  26.142  25.827  1.00  0.00     0.029 H 
ATOM     38  H   UNL     1     -47.061  25.113  24.696  1.00  0.00     0.029 H 
ENDBRANCH  26  31
ENDBRANCH   9  26
ENDBRANCH   4   5
ENDBRANCH   1   4
BRANCH   1  39
ATOM     39  C   UNL     1     -47.517  34.770  26.577  1.00  0.00     0.010 A 
ATOM     40  C   UNL     1     -48.818  34.938  27.028  1.00  0.00     0.034 A 
ATOM     41  C   UNL     1     -46.642  35.860  26.695  1.00  0.00    -0.028 A 
ATOM     42  N   UNL     1     -49.286  36.090  27.554  1.00  0.00    -0.262 NA
ATOM     43  H   UNL     1     -49.543  34.130  26.980  1.00  0.00     0.084 H 
ATOM     44  C   UNL     1     -47.089  37.076  27.223  1.00  0.00     0.066 A 
ATOM     45  H   UNL     1     -45.614  35.719  26.382  1.00  0.00     0.065 H 
ATOM     46  C   UNL     1     -48.419  37.129  27.635  1.00  0.00     0.051 A 
ATOM     47  H   UNL     1     -48.880  38.022  28.042  1.00  0.00     0.086 H 
BRANCH  44  48
ATOM     48  N   UNL     1     -46.236  38.220  27.348  1.00  0.00    -0.299 N 
ATOM     49  C   UNL     1     -46.190  39.272  26.454  1.00  0.00     0.021 A 
ATOM     50  C   UNL     1     -45.309  38.498  28.357  1.00  0.00     0.150 A 
ATOM     51  C   UNL     1     -45.287  40.215  26.897  1.00  0.00     0.033 A 
ATOM     52  H   UNL     1     -46.821  39.320  25.578  1.00  0.00     0.083 H 
ATOM     53  C   UNL     1     -44.686  39.718  28.080  1.00  0.00     0.071 A 
ATOM     54  N   UNL     1     -45.022  37.711  29.416  1.00  0.00    -0.218 NA
ATOM     55  C   UNL     1     -43.672  40.123  28.966  1.00  0.00     0.137 A 
ATOM     56  C   UNL     1     -44.065  38.217  30.201  1.00  0.00     0.120 A 
ATOM     57  N   UNL     1     -43.382  39.358  30.033  1.00  0.00    -0.219 NA
ATOM     58  H   UNL     1     -43.803  37.632  31.077  1.00  0.00     0.106 H 
BRANCH  51  59
ATOM     59  C   UNL     1     -45.017  41.486  26.232  1.00  0.00     0.095 A 
ATOM     60  C   UNL     1     -44.203  41.659  25.093  1.00  0.00    -0.016 A 
ATOM     61  N   UNL     1     -45.480  42.651  26.698  1.00  0.00    -0.173 NA
ATOM     62  C   UNL     1     -44.211  43.014  24.856  1.00  0.00     0.025 A 
ATOM     63  H   UNL     1     -43.676  40.904  24.525  1.00  0.00     0.066 H 
ATOM     64  N   UNL     1     -44.981  43.560  25.841  1.00  0.00    -0.275 N 
ATOM     65  H   UNL     1     -43.734  43.617  24.097  1.00  0.00     0.084 H 
BRANCH  64  66
ATOM     66  C   UNL     1     -45.282  44.958  26.034  1.00  0.00     0.030 C 
ATOM     67  H   UNL     1     -46.366  45.093  26.087  1.00  0.00     0.048 H 
ATOM     68  H   UNL     1     -44.820  45.283  26.970  1.00  0.00     0.048 H 
ATOM     69  H   UNL     1     -44.877  45.518  25.188  1.00  0.00     0.048 H 
ENDBRANCH  64  66
ENDBRANCH  51  59
BRANCH  55  70
ATOM     70  N   UNL     1     -42.889  41.261  28.805  1.00  0.00    -0.383 N 
ATOM     71  H   UNL     1     -43.125  41.940  29.521  1.00  0.00     0.158 HD
ATOM     72  H   UNL     1     -41.899  41.066  28.708  1.00  0.00     0.158 HD
ENDBRANCH  55  70
ENDBRANCH  44  48
ENDBRANCH   1  39
TORSDOF 12
ENDMDL
MODEL 3
REMARK VINA RESULT:      -9.8      1.880      3.672
REMARK SMILES CCc1cc(N(C)C2CC2)c2ccc(OCc3cncc(-n4cc(-c5ccn(C)n5)c5c(N)ncnc54)c3)cc2n1
REMARK SMILES IDX 16 1 15 4 14 5 3 6 4 7 41 8 5 9 40 11 11 12 39 13 12 14
REMARK SMILES IDX 13 16 2 19 1 22 6 26 7 27 8 31 9 32 10 33 17 39 18 40 38 41
REMARK SMILES IDX 19 42 21 44 20 46 22 48 23 49 37 50 24 51 31 53 36 54 32 55
REMARK SMILES IDX 35 56 34 57 25 59 26 60 30 61 27 62 28 64 29 66 33 70
REMARK H PARENT 16 2 16 3 4 10 39 15 12 17 13 18 2 20 2 21 1 23 1 24 1 25 7 28
REMARK H PARENT 7 29 7 30 8 34 9 35 9 36 10 37 10 38 18 43 38 45 20 47 23 52
REMARK H PARENT 35 58 26 63 27 65 29 67 29 68 29 69 33 71 33 72
REMARK Flexibility Score: inf
ROOT
ATOM      1  C   UNL     1     -47.991  35.112  26.896  1.00  0.00     0.115 C 
ATOM      2  H   UNL     1     -49.028  35.277  27.214  1.00  0.00     0.076 H 
ATOM      3  H   UNL     1     -47.985  35.246  25.808  1.00  0.00     0.076 H 
ENDROOT
BRANCH   1   4
ATOM      4  O   UNL     1     -47.587  33.763  27.144  1.00  0.00    -0.489 OA
BRANCH   4   5
ATOM      5  C   UNL     1     -47.451  32.917  26.078  1.00  0.00     0.122 A 
ATOM      6  C   UNL     1     -49.183  28.886  24.220  1.00  0.00     0.043 A 
ATOM      7  C   UNL     1     -48.350  28.947  23.114  1.00  0.00    -0.016 A 
ATOM      8  N   UNL     1     -49.174  29.826  25.192  1.00  0.00    -0.253 NA
ATOM      9  C   UNL     1     -47.469  30.026  22.984  1.00  0.00     0.048 A 
ATOM     10  H   UNL     1     -48.396  28.175  22.355  1.00  0.00     0.066 H 
ATOM     11  C   UNL     1     -48.323  30.861  25.086  1.00  0.00     0.076 A 
ATOM     12  C   UNL     1     -47.437  31.013  24.001  1.00  0.00     0.024 A 
ATOM     13  C   UNL     1     -48.317  31.818  26.093  1.00  0.00     0.007 A 
ATOM     14  C   UNL     1     -46.561  32.120  23.990  1.00  0.00    -0.047 A 
ATOM     15  H   UNL     1     -49.009  31.699  26.923  1.00  0.00     0.069 H 
ATOM     16  C   UNL     1     -46.570  33.067  25.016  1.00  0.00    -0.019 A 
ATOM     17  H   UNL     1     -45.857  32.246  23.168  1.00  0.00     0.063 H 
ATOM     18  H   UNL     1     -45.885  33.905  24.940  1.00  0.00     0.066 H 
BRANCH   6  19
ATOM     19  C   UNL     1     -50.135  27.732  24.398  1.00  0.00    -0.013 C 
ATOM     20  H   UNL     1     -50.531  27.421  23.426  1.00  0.00     0.033 H 
ATOM     21  H   UNL     1     -50.994  28.062  24.995  1.00  0.00     0.033 H 
BRANCH  19  22
ATOM     22  C   UNL     1     -49.462  26.556  25.091  1.00  0.00    -0.060 C 
ATOM     23  H   UNL     1     -49.765  26.486  26.140  1.00  0.00     0.023 H 
ATOM     24  H   UNL     1     -48.373  26.672  25.059  1.00  0.00     0.023 H 
ATOM     25  H   UNL     1     -49.718  25.610  24.603  1.00  0.00     0.023 H 
ENDBRANCH  19  22
ENDBRANCH   6  19
BRANCH   9  26
ATOM     26  N   UNL     1     -46.619  30.135  21.834  1.00  0.00    -0.371 N 
BRANCH  26  27
ATOM     27  C   UNL     1     -45.282  29.628  22.171  1.00  0.00     0.007 C 
ATOM     28  H   UNL     1     -44.600  30.442  22.443  1.00  0.00     0.046 H 
ATOM     29  H   UNL     1     -44.852  29.084  21.323  1.00  0.00     0.046 H 
ATOM     30  H   UNL     1     -45.316  28.918  23.004  1.00  0.00     0.046 H 
ENDBRANCH  26  27
BRANCH  26  31
ATOM     31  C   UNL     1     -46.713  31.396  21.056  1.00  0.00     0.029 C 
ATOM     32  C   UNL     1     -45.892  31.697  19.834  1.00  0.00    -0.031 C 
ATOM     33  C   UNL     1     -47.372  31.476  19.707  1.00  0.00    -0.031 C 
ATOM     34  H   UNL     1     -46.941  32.238  21.713  1.00  0.00     0.053 H 
ATOM     35  H   UNL     1     -45.231  30.937  19.436  1.00  0.00     0.029 H 
ATOM     36  H   UNL     1     -45.518  32.707  19.718  1.00  0.00     0.029 H 
ATOM     37  H   UNL     1     -48.000  32.337  19.508  1.00  0.00     0.029 H 
ATOM     38  H   UNL     1     -47.718  30.569  19.230  1.00  0.00     0.029 H 
ENDBRANCH  26  31
ENDBRANCH   9  26
ENDBRANCH   4   5
ENDBRANCH   1   4
BRANCH   1  39
ATOM     39  C   UNL     1     -47.042  36.124  27.482  1.00  0.00     0.010 A 
ATOM     40  C   UNL     1     -46.214  35.809  28.550  1.00  0.00     0.034 A 
ATOM     41  C   UNL     1     -46.922  37.405  26.923  1.00  0.00    -0.028 A 
ATOM     42  N   UNL     1     -45.320  36.668  29.084  1.00  0.00    -0.262 NA
ATOM     43  H   UNL     1     -46.244  34.831  29.021  1.00  0.00     0.084 H 
ATOM     44  C   UNL     1     -46.016  38.331  27.452  1.00  0.00     0.066 A 
ATOM     45  H   UNL     1     -47.538  37.640  26.062  1.00  0.00     0.065 H 
ATOM     46  C   UNL     1     -45.245  37.904  28.531  1.00  0.00     0.051 A 
ATOM     47  H   UNL     1     -44.524  38.539  29.034  1.00  0.00     0.086 H 
BRANCH  44  48
ATOM     48  N   UNL     1     -45.871  39.654  26.924  1.00  0.00    -0.299 N 
ATOM     49  C   UNL     1     -44.682  40.203  26.484  1.00  0.00     0.021 A 
ATOM     50  C   UNL     1     -46.861  40.627  26.753  1.00  0.00     0.150 A 
ATOM     51  C   UNL     1     -44.910  41.477  26.010  1.00  0.00     0.033 A 
ATOM     52  H   UNL     1     -43.751  39.655  26.491  1.00  0.00     0.083 H 
ATOM     53  C   UNL     1     -46.280  41.778  26.215  1.00  0.00     0.071 A 
ATOM     54  N   UNL     1     -48.164  40.506  27.082  1.00  0.00    -0.218 NA
ATOM     55  C   UNL     1     -47.125  42.887  26.036  1.00  0.00     0.137 A 
ATOM     56  C   UNL     1     -48.872  41.614  26.837  1.00  0.00     0.120 A 
ATOM     57  N   UNL     1     -48.429  42.780  26.346  1.00  0.00    -0.219 NA
ATOM     58  H   UNL     1     -49.931  41.569  27.070  1.00  0.00     0.106 H 
BRANCH  51  59
ATOM     59  C   UNL     1     -43.892  42.339  25.416  1.00  0.00     0.095 A 
ATOM     60  C   UNL     1     -42.793  42.900  26.099  1.00  0.00    -0.016 A 
ATOM     61  N   UNL     1     -43.948  42.741  24.141  1.00  0.00    -0.173 NA
ATOM     62  C   UNL     1     -42.142  43.660  25.155  1.00  0.00     0.025 A 
ATOM     63  H   UNL     1     -42.514  42.775  27.137  1.00  0.00     0.066 H 
ATOM     64  N   UNL     1     -42.871  43.536  24.009  1.00  0.00    -0.275 N 
ATOM     65  H   UNL     1     -41.254  44.273  25.209  1.00  0.00     0.084 H 
BRANCH  64  66
ATOM     66  C   UNL     1     -42.603  44.160  22.736  1.00  0.00     0.030 C 
ATOM     67  H   UNL     1     -42.656  43.409  21.944  1.00  0.00     0.048 H 
ATOM     68  H   UNL     1     -43.356  44.935  22.567  1.00  0.00     0.048 H 
ATOM     69  H   UNL     1     -41.602  44.597  22.770  1.00  0.00     0.048 H 
ENDBRANCH  64  66
ENDBRANCH  51  59
BRANCH  55  70
ATOM     70  N   UNL     1     -46.708  44.137  25.593  1.00  0.00    -0.383 N 
ATOM     71  H   UNL     1     -47.490  44.626  25.170  1.00  0.00     0.158 HD
ATOM     72  H   UNL     1     -46.197  44.668  26.289  1.00  0.00     0.158 HD
ENDBRANCH  55  70
ENDBRANCH  44  48
ENDBRANCH   1  39
TORSDOF 12
ENDMDL
MODEL 4
REMARK VINA RESULT:      -9.7      2.209     12.628
REMARK SMILES CCc1cc(N(C)C2CC2)c2ccc(OCc3cncc(-n4cc(-c5ccn(C)n5)c5c(N)ncnc54)c3)cc2n1
REMARK SMILES IDX 16 1 15 4 14 5 3 6 4 7 41 8 5 9 40 11 11 12 39 13 12 14
REMARK SMILES IDX 13 16 2 19 1 22 6 26 7 27 8 31 9 32 10 33 17 39 18 40 38 41
REMARK SMILES IDX 19 42 21 44 20 46 22 48 23 49 37 50 24 51 31 53 36 54 32 55
REMARK SMILES IDX 35 56 34 57 25 59 26 60 30 61 27 62 28 64 29 66 33 70
REMARK H PARENT 16 2 16 3 4 10 39 15 12 17 13 18 2 20 2 21 1 23 1 24 1 25 7 28
REMARK H PARENT 7 29 7 30 8 34 9 35 9 36 10 37 10 38 18 43 38 45 20 47 23 52
REMARK H PARENT 35 58 26 63 27 65 29 67 29 68 29 69 33 71 33 72
REMARK Flexibility Score: inf
ROOT
ATOM      1  C   UNL     1     -48.732  35.677  27.399  1.00  0.00     0.115 C 
ATOM      2  H   UNL     1     -49.315  36.396  26.809  1.00  0.00     0.076 H 
ATOM      3  H   UNL     1     -49.459  35.135  28.015  1.00  0.00     0.076 H 
ENDROOT
BRANCH   1   4
ATOM      4  O   UNL     1     -47.852  36.349  28.303  1.00  0.00    -0.489 OA
BRANCH   4   5
ATOM      5  C   UNL     1     -47.249  37.505  27.889  1.00  0.00     0.122 A 
ATOM      6  C   UNL     1     -43.489  40.305  28.736  1.00  0.00     0.043 A 
ATOM      7  C   UNL     1     -43.831  41.198  27.731  1.00  0.00    -0.016 A 
ATOM      8  N   UNL     1     -44.221  39.202  29.009  1.00  0.00    -0.253 NA
ATOM      9  C   UNL     1     -44.970  40.950  26.959  1.00  0.00     0.048 A 
ATOM     10  H   UNL     1     -43.211  42.067  27.541  1.00  0.00     0.066 H 
ATOM     11  C   UNL     1     -45.325  38.959  28.283  1.00  0.00     0.076 A 
ATOM     12  C   UNL     1     -45.756  39.805  27.242  1.00  0.00     0.024 A 
ATOM     13  C   UNL     1     -46.074  37.826  28.577  1.00  0.00     0.007 A 
ATOM     14  C   UNL     1     -46.944  39.480  26.551  1.00  0.00    -0.047 A 
ATOM     15  H   UNL     1     -45.731  37.174  29.377  1.00  0.00     0.069 H 
ATOM     16  C   UNL     1     -47.682  38.338  26.867  1.00  0.00    -0.019 A 
ATOM     17  H   UNL     1     -47.302  40.131  25.755  1.00  0.00     0.063 H 
ATOM     18  H   UNL     1     -48.576  38.135  26.288  1.00  0.00     0.066 H 
BRANCH   6  19
ATOM     19  C   UNL     1     -42.276  40.549  29.596  1.00  0.00    -0.013 C 
ATOM     20  H   UNL     1     -41.590  39.699  29.522  1.00  0.00     0.033 H 
ATOM     21  H   UNL     1     -42.586  40.610  30.646  1.00  0.00     0.033 H 
BRANCH  19  22
ATOM     22  C   UNL     1     -41.564  41.834  29.204  1.00  0.00    -0.060 C 
ATOM     23  H   UNL     1     -40.477  41.708  29.222  1.00  0.00     0.023 H 
ATOM     24  H   UNL     1     -41.823  42.638  29.902  1.00  0.00     0.023 H 
ATOM     25  H   UNL     1     -41.849  42.154  28.196  1.00  0.00     0.023 H 
ENDBRANCH  19  22
ENDBRANCH   6  19
BRANCH   9  26
ATOM     26  N   UNL     1     -45.330  41.835  25.890  1.00  0.00    -0.371 N 
BRANCH  26  27
ATOM     27  C   UNL     1     -44.208  41.935  24.945  1.00  0.00     0.007 C 
ATOM     28  H   UNL     1     -44.527  42.357  23.986  1.00  0.00     0.046 H 
ATOM     29  H   UNL     1     -43.771  40.948  24.762  1.00  0.00     0.046 H 
ATOM     30  H   UNL     1     -43.400  42.559  25.341  1.00  0.00     0.046 H 
ENDBRANCH  26  27
BRANCH  26  31
ATOM     31  C   UNL     1     -46.035  43.085  26.271  1.00  0.00     0.029 C 
ATOM     32  C   UNL     1     -46.388  44.182  25.307  1.00  0.00    -0.031 C 
ATOM     33  C   UNL     1     -47.474  43.348  25.925  1.00  0.00    -0.031 C 
ATOM     34  H   UNL     1     -45.758  43.390  27.282  1.00  0.00     0.053 H 
ATOM     35  H   UNL     1     -46.187  44.050  24.252  1.00  0.00     0.029 H 
ATOM     36  H   UNL     1     -46.277  45.204  25.649  1.00  0.00     0.029 H 
ATOM     37  H   UNL     1     -48.096  43.805  26.686  1.00  0.00     0.029 H 
ATOM     38  H   UNL     1     -48.006  42.648  25.296  1.00  0.00     0.029 H 
ENDBRANCH  26  31
ENDBRANCH   9  26
ENDBRANCH   4   5
ENDBRANCH   1   4
BRANCH   1  39
ATOM     39  C   UNL     1     -48.024  34.664  26.537  1.00  0.00     0.010 A 
ATOM     40  C   UNL     1     -46.727  34.871  26.091  1.00  0.00     0.034 A 
ATOM     41  C   UNL     1     -48.638  33.446  26.208  1.00  0.00    -0.028 A 
ATOM     42  N   UNL     1     -46.038  33.978  25.350  1.00  0.00    -0.262 NA
ATOM     43  H   UNL     1     -46.188  35.786  26.321  1.00  0.00     0.084 H 
ATOM     44  C   UNL     1     -47.964  32.497  25.432  1.00  0.00     0.066 A 
ATOM     45  H   UNL     1     -49.636  33.264  26.590  1.00  0.00     0.065 H 
ATOM     46  C   UNL     1     -46.669  32.820  25.034  1.00  0.00     0.051 A 
ATOM     47  H   UNL     1     -46.058  32.171  24.417  1.00  0.00     0.086 H 
BRANCH  44  48
ATOM     48  N   UNL     1     -48.556  31.247  25.060  1.00  0.00    -0.299 N 
ATOM     49  C   UNL     1     -48.305  30.038  25.679  1.00  0.00     0.021 A 
ATOM     50  C   UNL     1     -49.472  31.000  24.032  1.00  0.00     0.150 A 
ATOM     51  C   UNL     1     -49.066  29.051  25.090  1.00  0.00     0.033 A 
ATOM     52  H   UNL     1     -47.637  29.944  26.523  1.00  0.00     0.083 H 
ATOM     53  C   UNL     1     -49.779  29.637  24.014  1.00  0.00     0.071 A 
ATOM     54  N   UNL     1     -49.964  31.910  23.165  1.00  0.00    -0.218 NA
ATOM     55  C   UNL     1     -50.642  29.199  22.994  1.00  0.00     0.137 A 
ATOM     56  C   UNL     1     -50.797  31.379  22.264  1.00  0.00     0.120 A 
ATOM     57  N   UNL     1     -51.152  30.094  22.131  1.00  0.00    -0.219 NA
ATOM     58  H   UNL     1     -51.234  32.069  21.549  1.00  0.00     0.106 H 
BRANCH  51  59
ATOM     59  C   UNL     1     -49.099  27.657  25.520  1.00  0.00     0.095 A 
ATOM     60  C   UNL     1     -50.263  26.920  25.825  1.00  0.00    -0.016 A 
ATOM     61  N   UNL     1     -47.986  26.946  25.736  1.00  0.00    -0.173 NA
ATOM     62  C   UNL     1     -49.805  25.684  26.218  1.00  0.00     0.025 A 
ATOM     63  H   UNL     1     -51.294  27.244  25.772  1.00  0.00     0.066 H 
ATOM     64  N   UNL     1     -48.444  25.752  26.152  1.00  0.00    -0.275 N 
ATOM     65  H   UNL     1     -50.322  24.793  26.544  1.00  0.00     0.084 H 
BRANCH  64  66
ATOM     66  C   UNL     1     -47.504  24.708  26.483  1.00  0.00     0.030 C 
ATOM     67  H   UNL     1     -47.013  24.359  25.571  1.00  0.00     0.048 H 
ATOM     68  H   UNL     1     -46.762  25.119  27.173  1.00  0.00     0.048 H 
ATOM     69  H   UNL     1     -48.053  23.887  26.950  1.00  0.00     0.048 H 
ENDBRANCH  64  66
ENDBRANCH  51  59
BRANCH  55  70
ATOM     70  N   UNL     1     -50.992  27.872  22.769  1.00  0.00    -0.383 N 
ATOM     71  H   UNL     1     -51.979  27.815  22.539  1.00  0.00     0.158 HD
ATOM     72  H   UNL     1     -50.374  27.389  22.128  1.00  0.00     0.158 HD
ENDBRANCH  55  70
ENDBRANCH  44  48
ENDBRANCH   1  39
TORSDOF 12
ENDMDL
MODEL 5
REMARK VINA RESULT:      -9.6      1.648      2.532
REMARK SMILES CCc1cc(N(C)C2CC2)c2ccc(OCc3cncc(-n4cc(-c5ccn(C)n5)c5c(N)ncnc54)c3)cc2n1
REMARK SMILES IDX 16 1 15 4 14 5 3 6 4 7 41 8 5 9 40 11 11 12 39 13 12 14
REMARK SMILES IDX 13 16 2 19 1 22 6 26 7 27 8 31 9 32 10 33 17 39 18 40 38 41
REMARK SMILES IDX 19 42 21 44 20 46 22 48 23 49 37 50 24 51 31 53 36 54 32 55
REMARK SMILES IDX 35 56 34 57 25 59 26 60 30 61 27 62 28 64 29 66 33 70
REMARK H PARENT 16 2 16 3 4 10 39 15 12 17 13 18 2 20 2 21 1 23 1 24 1 25 7 28
REMARK H PARENT 7 29 7 30 8 34 9 35 9 36 10 37 10 38 18 43 38 45 20 47 23 52
REMARK H PARENT 35 58 26 63 27 65 29 67 29 68 29 69 33 71 33 72
REMARK Flexibility Score: inf
ROOT
ATOM      1  C   UNL     1     -47.511  34.979  27.301  1.00  0.00     0.115 C 
ATOM      2  H   UNL     1     -48.196  34.420  27.952  1.00  0.00     0.076 H 
ATOM      3  H   UNL     1     -48.122  35.354  26.472  1.00  0.00     0.076 H 
ENDROOT
BRANCH   1   4
ATOM      4  O   UNL     1     -46.530  34.112  26.725  1.00  0.00    -0.489 OA
BRANCH   4   5
ATOM      5  C   UNL     1     -46.958  33.034  25.999  1.00  0.00     0.122 A 
ATOM      6  C   UNL     1     -46.436  30.888  21.777  1.00  0.00     0.043 A 
ATOM      7  C   UNL     1     -47.315  29.866  22.102  1.00  0.00    -0.016 A 
ATOM      8  N   UNL     1     -46.133  31.888  22.635  1.00  0.00    -0.253 NA
ATOM      9  C   UNL     1     -47.908  29.855  23.369  1.00  0.00     0.048 A 
ATOM     10  H   UNL     1     -47.523  29.080  21.386  1.00  0.00     0.066 H 
ATOM     11  C   UNL     1     -46.707  31.897  23.851  1.00  0.00     0.076 A 
ATOM     12  C   UNL     1     -47.611  30.904  24.275  1.00  0.00     0.024 A 
ATOM     13  C   UNL     1     -46.394  32.932  24.723  1.00  0.00     0.007 A 
ATOM     14  C   UNL     1     -48.183  31.011  25.562  1.00  0.00    -0.047 A 
ATOM     15  H   UNL     1     -45.689  33.691  24.392  1.00  0.00     0.069 H 
ATOM     16  C   UNL     1     -47.856  32.064  26.419  1.00  0.00    -0.019 A 
ATOM     17  H   UNL     1     -48.898  30.263  25.901  1.00  0.00     0.063 H 
ATOM     18  H   UNL     1     -48.316  32.080  27.401  1.00  0.00     0.066 H 
BRANCH   6  19
ATOM     19  C   UNL     1     -45.790  30.939  20.417  1.00  0.00    -0.013 C 
ATOM     20  H   UNL     1     -45.903  29.972  19.915  1.00  0.00     0.033 H 
ATOM     21  H   UNL     1     -44.713  31.105  20.537  1.00  0.00     0.033 H 
BRANCH  19  22
ATOM     22  C   UNL     1     -46.381  32.048  19.560  1.00  0.00    -0.060 C 
ATOM     23  H   UNL     1     -46.868  31.644  18.668  1.00  0.00     0.023 H 
ATOM     24  H   UNL     1     -45.592  32.734  19.234  1.00  0.00     0.023 H 
ATOM     25  H   UNL     1     -47.125  32.626  20.118  1.00  0.00     0.023 H 
ENDBRANCH  19  22
ENDBRANCH   6  19
BRANCH   9  26
ATOM     26  N   UNL     1     -48.793  28.792  23.747  1.00  0.00    -0.371 N 
BRANCH  26  27
ATOM     27  C   UNL     1     -48.003  27.598  24.075  1.00  0.00     0.007 C 
ATOM     28  H   UNL     1     -47.002  27.863  24.433  1.00  0.00     0.046 H 
ATOM     29  H   UNL     1     -47.898  26.953  23.196  1.00  0.00     0.046 H 
ATOM     30  H   UNL     1     -48.491  26.989  24.844  1.00  0.00     0.046 H 
ENDBRANCH  26  27
BRANCH  26  31
ATOM     31  C   UNL     1     -50.013  28.618  22.919  1.00  0.00     0.029 C 
ATOM     32  C   UNL     1     -50.929  27.430  23.006  1.00  0.00    -0.031 C 
ATOM     33  C   UNL     1     -51.403  28.778  23.470  1.00  0.00    -0.031 C 
ATOM     34  H   UNL     1     -49.874  29.057  21.930  1.00  0.00     0.053 H 
ATOM     35  H   UNL     1     -50.749  26.672  23.758  1.00  0.00     0.029 H 
ATOM     36  H   UNL     1     -51.334  27.041  22.080  1.00  0.00     0.029 H 
ATOM     37  H   UNL     1     -52.127  29.302  22.855  1.00  0.00     0.029 H 
ATOM     38  H   UNL     1     -51.540  28.940  24.530  1.00  0.00     0.029 H 
ENDBRANCH  26  31
ENDBRANCH   9  26
ENDBRANCH   4   5
ENDBRANCH   1   4
BRANCH   1  39
ATOM     39  C   UNL     1     -46.904  36.171  27.993  1.00  0.00     0.010 A 
ATOM     40  C   UNL     1     -46.455  36.099  29.304  1.00  0.00     0.034 A 
ATOM     41  C   UNL     1     -46.718  37.382  27.309  1.00  0.00    -0.028 A 
ATOM     42  N   UNL     1     -45.870  37.127  29.954  1.00  0.00    -0.262 NA
ATOM     43  H   UNL     1     -46.555  35.187  29.887  1.00  0.00     0.084 H 
ATOM     44  C   UNL     1     -46.127  38.476  27.947  1.00  0.00     0.066 A 
ATOM     45  H   UNL     1     -47.031  37.428  26.271  1.00  0.00     0.065 H 
ATOM     46  C   UNL     1     -45.724  38.287  29.268  1.00  0.00     0.051 A 
ATOM     47  H   UNL     1     -45.271  39.069  29.868  1.00  0.00     0.086 H 
BRANCH  44  48
ATOM     48  N   UNL     1     -45.931  39.735  27.293  1.00  0.00    -0.299 N 
ATOM     49  C   UNL     1     -44.710  40.224  26.868  1.00  0.00     0.021 A 
ATOM     50  C   UNL     1     -46.894  40.694  26.965  1.00  0.00     0.150 A 
ATOM     51  C   UNL     1     -44.891  41.443  26.251  1.00  0.00     0.033 A 
ATOM     52  H   UNL     1     -43.790  39.671  26.986  1.00  0.00     0.083 H 
ATOM     53  C   UNL     1     -46.265  41.777  26.344  1.00  0.00     0.071 A 
ATOM     54  N   UNL     1     -48.216  40.622  27.228  1.00  0.00    -0.218 NA
ATOM     55  C   UNL     1     -47.082  42.870  26.002  1.00  0.00     0.137 A 
ATOM     56  C   UNL     1     -48.891  41.705  26.829  1.00  0.00     0.120 A 
ATOM     57  N   UNL     1     -48.403  42.808  26.245  1.00  0.00    -0.219 NA
ATOM     58  H   UNL     1     -49.962  41.694  27.004  1.00  0.00     0.106 H 
BRANCH  51  59
ATOM     59  C   UNL     1     -43.828  42.227  25.631  1.00  0.00     0.095 A 
ATOM     60  C   UNL     1     -42.628  42.624  26.259  1.00  0.00    -0.016 A 
ATOM     61  N   UNL     1     -43.927  42.714  24.389  1.00  0.00    -0.173 NA
ATOM     62  C   UNL     1     -41.965  43.369  25.312  1.00  0.00     0.025 A 
ATOM     63  H   UNL     1     -42.293  42.404  27.264  1.00  0.00     0.066 H 
ATOM     64  N   UNL     1     -42.780  43.397  24.219  1.00  0.00    -0.275 N 
ATOM     65  H   UNL     1     -41.012  43.880  25.333  1.00  0.00     0.084 H 
BRANCH  64  66
ATOM     66  C   UNL     1     -42.534  44.069  22.966  1.00  0.00     0.030 C 
ATOM     67  H   UNL     1     -42.688  43.369  22.141  1.00  0.00     0.048 H 
ATOM     68  H   UNL     1     -43.232  44.906  22.881  1.00  0.00     0.048 H 
ATOM     69  H   UNL     1     -41.501  44.427  22.965  1.00  0.00     0.048 H 
ENDBRANCH  64  66
ENDBRANCH  51  59
BRANCH  55  70
ATOM     70  N   UNL     1     -46.620  44.062  25.456  1.00  0.00    -0.383 N 
ATOM     71  H   UNL     1     -46.231  43.886  24.536  1.00  0.00     0.158 HD
ATOM     72  H   UNL     1     -47.292  44.819  25.500  1.00  0.00     0.158 HD
ENDBRANCH  55  70
ENDBRANCH  44  48
ENDBRANCH   1  39
TORSDOF 12
ENDMDL
MODEL 6
REMARK VINA RESULT:      -9.5      1.642      1.994
REMARK SMILES CCc1cc(N(C)C2CC2)c2ccc(OCc3cncc(-n4cc(-c5ccn(C)n5)c5c(N)ncnc54)c3)cc2n1
REMARK SMILES IDX 16 1 15 4 14 5 3 6 4 7 41 8 5 9 40 11 11 12 39 13 12 14
REMARK SMILES IDX 13 16 2 19 1 22 6 26 7 27 8 31 9 32 10 33 17 39 18 40 38 41
REMARK SMILES IDX 19 42 21 44 20 46 22 48 23 49 37 50 24 51 31 53 36 54 32 55
REMARK SMILES IDX 35 56 34 57 25 59 26 60 30 61 27 62 28 64 29 66 33 70
REMARK H PARENT 16 2 16 3 4 10 39 15 12 17 13 18 2 20 2 21 1 23 1 24 1 25 7 28
REMARK H PARENT 7 29 7 30 8 34 9 35 9 36 10 37 10 38 18 43 38 45 20 47 23 52
REMARK H PARENT 35 58 26 63 27 65 29 67 29 68 29 69 33 71 33 72
REMARK Flexibility Score: inf
ROOT
ATOM      1  C   UNL     1     -47.284  35.888  27.749  1.00  0.00     0.115 C 
ATOM      2  H   UNL     1     -46.670  35.588  28.608  1.00  0.00     0.076 H 
ATOM      3  H   UNL     1     -48.256  35.401  27.889  1.00  0.00     0.076 H 
ENDROOT
BRANCH   1   4
ATOM      4  O   UNL     1     -46.744  35.375  26.528  1.00  0.00    -0.489 OA
BRANCH   4   5
ATOM      5  C   UNL     1     -47.276  34.226  26.011  1.00  0.00     0.122 A 
ATOM      6  C   UNL     1     -46.305  30.626  23.046  1.00  0.00     0.043 A 
ATOM      7  C   UNL     1     -47.526  30.009  23.272  1.00  0.00    -0.016 A 
ATOM      8  N   UNL     1     -45.948  31.780  23.653  1.00  0.00    -0.253 NA
ATOM      9  C   UNL     1     -48.426  30.591  24.171  1.00  0.00     0.048 A 
ATOM     10  H   UNL     1     -47.768  29.080  22.769  1.00  0.00     0.066 H 
ATOM     11  C   UNL     1     -46.810  32.356  24.509  1.00  0.00     0.076 A 
ATOM     12  C   UNL     1     -48.073  31.808  24.806  1.00  0.00     0.024 A 
ATOM     13  C   UNL     1     -46.436  33.545  25.123  1.00  0.00     0.007 A 
ATOM     14  C   UNL     1     -48.921  32.500  25.699  1.00  0.00    -0.047 A 
ATOM     15  H   UNL     1     -45.457  33.958  24.896  1.00  0.00     0.069 H 
ATOM     16  C   UNL     1     -48.525  33.696  26.301  1.00  0.00    -0.019 A 
ATOM     17  H   UNL     1     -49.908  32.101  25.927  1.00  0.00     0.063 H 
ATOM     18  H   UNL     1     -49.214  34.169  26.991  1.00  0.00     0.066 H 
BRANCH   6  19
ATOM     19  C   UNL     1     -45.317  30.034  22.074  1.00  0.00    -0.013 C 
ATOM     20  H   UNL     1     -44.478  30.724  21.929  1.00  0.00     0.033 H 
ATOM     21  H   UNL     1     -45.799  29.919  21.096  1.00  0.00     0.033 H 
BRANCH  19  22
ATOM     22  C   UNL     1     -44.809  28.682  22.550  1.00  0.00    -0.060 C 
ATOM     23  H   UNL     1     -44.376  28.107  21.724  1.00  0.00     0.023 H 
ATOM     24  H   UNL     1     -45.632  28.097  22.975  1.00  0.00     0.023 H 
ATOM     25  H   UNL     1     -44.039  28.796  23.319  1.00  0.00     0.023 H 
ENDBRANCH  19  22
ENDBRANCH   6  19
BRANCH   9  26
ATOM     26  N   UNL     1     -49.682  29.958  24.452  1.00  0.00    -0.371 N 
BRANCH  26  27
ATOM     27  C   UNL     1     -49.438  28.595  24.944  1.00  0.00     0.007 C 
ATOM     28  H   UNL     1     -48.823  28.599  25.851  1.00  0.00     0.046 H 
ATOM     29  H   UNL     1     -48.929  27.997  24.182  1.00  0.00     0.046 H 
ATOM     30  H   UNL     1     -50.374  28.072  25.169  1.00  0.00     0.046 H 
ENDBRANCH  26  27
BRANCH  26  31
ATOM     31  C   UNL     1     -50.765  30.158  23.456  1.00  0.00     0.029 C 
ATOM     32  C   UNL     1     -52.196  29.755  23.674  1.00  0.00    -0.031 C 
ATOM     33  C   UNL     1     -51.828  31.211  23.608  1.00  0.00    -0.031 C 
ATOM     34  H   UNL     1     -50.377  30.061  22.441  1.00  0.00     0.053 H 
ATOM     35  H   UNL     1     -52.497  29.354  24.633  1.00  0.00     0.029 H 
ATOM     36  H   UNL     1     -52.729  29.329  22.834  1.00  0.00     0.029 H 
ATOM     37  H   UNL     1     -52.110  31.767  22.721  1.00  0.00     0.029 H 
ATOM     38  H   UNL     1     -51.873  31.795  24.517  1.00  0.00     0.029 H 
ENDBRANCH  26  31
ENDBRANCH   9  26
ENDBRANCH   4   5
ENDBRANCH   1   4
BRANCH   1  39
ATOM     39  C   UNL     1     -47.525  37.374  27.704  1.00  0.00     0.010 A 
ATOM     40  C   UNL     1     -48.735  37.926  28.100  1.00  0.00     0.034 A 
ATOM     41  C   UNL     1     -46.505  38.256  27.317  1.00  0.00    -0.028 A 
ATOM     42  N   UNL     1     -48.985  39.252  28.115  1.00  0.00    -0.262 NA
ATOM     43  H   UNL     1     -49.562  37.301  28.425  1.00  0.00     0.084 H 
ATOM     44  C   UNL     1     -46.724  39.638  27.306  1.00  0.00     0.066 A 
ATOM     45  H   UNL     1     -45.545  37.830  27.047  1.00  0.00     0.065 H 
ATOM     46  C   UNL     1     -47.983  40.074  27.715  1.00  0.00     0.051 A 
ATOM     47  H   UNL     1     -48.273  41.118  27.731  1.00  0.00     0.086 H 
BRANCH  44  48
ATOM     48  N   UNL     1     -45.718  40.574  26.904  1.00  0.00    -0.299 N 
ATOM     49  C   UNL     1     -45.807  41.405  25.804  1.00  0.00     0.021 A 
ATOM     50  C   UNL     1     -44.486  40.829  27.513  1.00  0.00     0.150 A 
ATOM     51  C   UNL     1     -44.681  42.197  25.732  1.00  0.00     0.033 A 
ATOM     52  H   UNL     1     -46.672  41.423  25.157  1.00  0.00     0.083 H 
ATOM     53  C   UNL     1     -43.812  41.812  26.784  1.00  0.00     0.071 A 
ATOM     54  N   UNL     1     -43.993  40.211  28.607  1.00  0.00    -0.218 NA
ATOM     55  C   UNL     1     -42.519  42.148  27.222  1.00  0.00     0.137 A 
ATOM     56  C   UNL     1     -42.771  40.637  28.944  1.00  0.00     0.120 A 
ATOM     57  N   UNL     1     -42.018  41.553  28.318  1.00  0.00    -0.219 NA
ATOM     58  H   UNL     1     -42.331  40.184  29.827  1.00  0.00     0.106 H 
BRANCH  51  59
ATOM     59  C   UNL     1     -44.455  43.232  24.728  1.00  0.00     0.095 A 
ATOM     60  C   UNL     1     -43.705  43.076  23.543  1.00  0.00    -0.016 A 
ATOM     61  N   UNL     1     -44.898  44.486  24.879  1.00  0.00    -0.173 NA
ATOM     62  C   UNL     1     -43.734  44.314  22.943  1.00  0.00     0.025 A 
ATOM     63  H   UNL     1     -43.207  42.189  23.178  1.00  0.00     0.066 H 
ATOM     64  N   UNL     1     -44.452  45.118  23.779  1.00  0.00    -0.275 N 
ATOM     65  H   UNL     1     -43.302  44.680  22.022  1.00  0.00     0.084 H 
BRANCH  64  66
ATOM     66  C   UNL     1     -44.749  46.518  23.595  1.00  0.00     0.030 C 
ATOM     67  H   UNL     1     -43.824  47.097  23.650  1.00  0.00     0.048 H 
ATOM     68  H   UNL     1     -45.212  46.646  22.613  1.00  0.00     0.048 H 
ATOM     69  H   UNL     1     -45.433  46.831  24.388  1.00  0.00     0.048 H 
ENDBRANCH  64  66
ENDBRANCH  51  59
BRANCH  55  70
ATOM     70  N   UNL     1     -41.671  43.040  26.575  1.00  0.00    -0.383 N 
ATOM     71  H   UNL     1     -40.942  42.525  26.091  1.00  0.00     0.158 HD
ATOM     72  H   UNL     1     -42.155  43.730  26.012  1.00  0.00     0.158 HD
ENDBRANCH  55  70
ENDBRANCH  44  48
ENDBRANCH   1  39
TORSDOF 12
ENDMDL
MODEL 7
REMARK VINA RESULT:      -9.3      2.017      3.390
REMARK SMILES CCc1cc(N(C)C2CC2)c2ccc(OCc3cncc(-n4cc(-c5ccn(C)n5)c5c(N)ncnc54)c3)cc2n1
REMARK SMILES IDX 16 1 15 4 14 5 3 6 4 7 41 8 5 9 40 11 11 12 39 13 12 14
REMARK SMILES IDX 13 16 2 19 1 22 6 26 7 27 8 31 9 32 10 33 17 39 18 40 38 41
REMARK SMILES IDX 19 42 21 44 20 46 22 48 23 49 37 50 24 51 31 53 36 54 32 55
REMARK SMILES IDX 35 56 34 57 25 59 26 60 30 61 27 62 28 64 29 66 33 70
REMARK H PARENT 16 2 16 3 4 10 39 15 12 17 13 18 2 20 2 21 1 23 1 24 1 25 7 28
REMARK H PARENT 7 29 7 30 8 34 9 35 9 36 10 37 10 38 18 43 38 45 20 47 23 52
REMARK H PARENT 35 58 26 63 27 65 29 67 29 68 29 69 33 71 33 72
REMARK Flexibility Score: inf
ROOT
ATOM      1  C   UNL     1     -47.194  33.702  25.525  1.00  0.00     0.115 C 
ATOM      2  H   UNL     1     -47.511  33.765  24.476  1.00  0.00     0.076 H 
ATOM      3  H   UNL     1     -46.100  33.639  25.506  1.00  0.00     0.076 H 
ENDROOT
BRANCH   1   4
ATOM      4  O   UNL     1     -47.662  32.494  26.131  1.00  0.00    -0.489 OA
BRANCH   4   5
ATOM      5  C   UNL     1     -48.171  31.514  25.324  1.00  0.00     0.122 A 
ATOM      6  C   UNL     1     -49.402  26.912  25.302  1.00  0.00     0.043 A 
ATOM      7  C   UNL     1     -49.822  26.951  23.982  1.00  0.00    -0.016 A 
ATOM      8  N   UNL     1     -48.914  27.997  25.944  1.00  0.00    -0.253 NA
ATOM      9  C   UNL     1     -49.751  28.159  23.280  1.00  0.00     0.048 A 
ATOM     10  H   UNL     1     -50.215  26.058  23.508  1.00  0.00     0.066 H 
ATOM     11  C   UNL     1     -48.827  29.161  25.277  1.00  0.00     0.076 A 
ATOM     12  C   UNL     1     -49.228  29.303  23.934  1.00  0.00     0.024 A 
ATOM     13  C   UNL     1     -48.317  30.268  25.943  1.00  0.00     0.007 A 
ATOM     14  C   UNL     1     -49.075  30.561  23.309  1.00  0.00    -0.047 A 
ATOM     15  H   UNL     1     -48.017  30.154  26.982  1.00  0.00     0.069 H 
ATOM     16  C   UNL     1     -48.557  31.658  23.998  1.00  0.00    -0.019 A 
ATOM     17  H   UNL     1     -49.364  30.686  22.266  1.00  0.00     0.063 H 
ATOM     18  H   UNL     1     -48.482  32.601  23.468  1.00  0.00     0.066 H 
BRANCH   6  19
ATOM     19  C   UNL     1     -49.452  25.625  26.083  1.00  0.00    -0.013 C 
ATOM     20  H   UNL     1     -49.831  24.817  25.447  1.00  0.00     0.033 H 
ATOM     21  H   UNL     1     -50.165  25.732  26.909  1.00  0.00     0.033 H 
BRANCH  19  22
ATOM     22  C   UNL     1     -48.085  25.257  26.640  1.00  0.00    -0.060 C 
ATOM     23  H   UNL     1     -47.282  25.603  25.982  1.00  0.00     0.023 H 
ATOM     24  H   UNL     1     -47.998  24.170  26.739  1.00  0.00     0.023 H 
ATOM     25  H   UNL     1     -47.927  25.703  27.627  1.00  0.00     0.023 H 
ENDBRANCH  19  22
ENDBRANCH   6  19
BRANCH   9  26
ATOM     26  N   UNL     1     -50.211  28.240  21.924  1.00  0.00    -0.371 N 
BRANCH  26  27
ATOM     27  C   UNL     1     -49.212  28.954  21.117  1.00  0.00     0.007 C 
ATOM     28  H   UNL     1     -48.920  28.375  20.234  1.00  0.00     0.046 H 
ATOM     29  H   UNL     1     -48.315  29.161  21.709  1.00  0.00     0.046 H 
ATOM     30  H   UNL     1     -49.586  29.927  20.778  1.00  0.00     0.046 H 
ENDBRANCH  26  27
BRANCH  26  31
ATOM     31  C   UNL     1     -51.642  28.581  21.727  1.00  0.00     0.029 C 
ATOM     32  C   UNL     1     -52.378  29.623  22.520  1.00  0.00    -0.031 C 
ATOM     33  C   UNL     1     -52.094  29.852  21.063  1.00  0.00    -0.031 C 
ATOM     34  H   UNL     1     -52.211  27.698  21.431  1.00  0.00     0.053 H 
ATOM     35  H   UNL     1     -51.839  30.224  23.240  1.00  0.00     0.029 H 
ATOM     36  H   UNL     1     -53.399  29.404  22.810  1.00  0.00     0.029 H 
ATOM     37  H   UNL     1     -52.923  29.784  20.366  1.00  0.00     0.029 H 
ATOM     38  H   UNL     1     -51.362  30.600  20.792  1.00  0.00     0.029 H 
ENDBRANCH  26  31
ENDBRANCH   9  26
ENDBRANCH   4   5
ENDBRANCH   1   4
BRANCH   1  39
ATOM     39  C   UNL     1     -47.564  34.933  26.312  1.00  0.00     0.010 A 
ATOM     40  C   UNL     1     -48.785  35.039  26.961  1.00  0.00     0.034 A 
ATOM     41  C   UNL     1     -46.654  35.990  26.462  1.00  0.00    -0.028 A 
ATOM     42  N   UNL     1     -49.146  36.103  27.709  1.00  0.00    -0.262 NA
ATOM     43  H   UNL     1     -49.531  34.251  26.899  1.00  0.00     0.084 H 
ATOM     44  C   UNL     1     -46.991  37.117  27.219  1.00  0.00     0.066 A 
ATOM     45  H   UNL     1     -45.683  35.891  25.990  1.00  0.00     0.065 H 
ATOM     46  C   UNL     1     -48.249  37.114  27.817  1.00  0.00     0.051 A 
ATOM     47  H   UNL     1     -48.626  37.940  28.411  1.00  0.00     0.086 H 
BRANCH  44  48
ATOM     48  N   UNL     1     -46.101  38.225  27.387  1.00  0.00    -0.299 N 
ATOM     49  C   UNL     1     -45.951  39.263  26.487  1.00  0.00     0.021 A 
ATOM     50  C   UNL     1     -45.230  38.477  28.452  1.00  0.00     0.150 A 
ATOM     51  C   UNL     1     -45.040  40.173  26.978  1.00  0.00     0.033 A 
ATOM     52  H   UNL     1     -46.522  39.325  25.572  1.00  0.00     0.083 H 
ATOM     53  C   UNL     1     -44.539  39.666  28.204  1.00  0.00     0.071 A 
ATOM     54  N   UNL     1     -45.045  37.693  29.535  1.00  0.00    -0.218 NA
ATOM     55  C   UNL     1     -43.567  40.040  29.149  1.00  0.00     0.137 A 
ATOM     56  C   UNL     1     -44.121  38.169  30.376  1.00  0.00     0.120 A 
ATOM     57  N   UNL     1     -43.381  39.278  30.241  1.00  0.00    -0.219 NA
ATOM     58  H   UNL     1     -43.941  37.584  31.272  1.00  0.00     0.106 H 
BRANCH  51  59
ATOM     59  C   UNL     1     -44.673  41.422  26.320  1.00  0.00     0.095 A 
ATOM     60  C   UNL     1     -45.577  42.349  25.760  1.00  0.00    -0.016 A 
ATOM     61  N   UNL     1     -43.400  41.782  26.122  1.00  0.00    -0.173 NA
ATOM     62  C   UNL     1     -44.782  43.335  25.222  1.00  0.00     0.025 A 
ATOM     63  H   UNL     1     -46.657  42.306  25.743  1.00  0.00     0.066 H 
ATOM     64  N   UNL     1     -43.496  42.949  25.460  1.00  0.00    -0.275 N 
ATOM     65  H   UNL     1     -45.021  44.247  24.692  1.00  0.00     0.084 H 
BRANCH  64  66
ATOM     66  C   UNL     1     -42.293  43.646  25.074  1.00  0.00     0.030 C 
ATOM     67  H   UNL     1     -41.817  43.118  24.244  1.00  0.00     0.048 H 
ATOM     68  H   UNL     1     -42.565  44.659  24.765  1.00  0.00     0.048 H 
ATOM     69  H   UNL     1     -41.619  43.674  25.934  1.00  0.00     0.048 H 
ENDBRANCH  64  66
ENDBRANCH  51  59
BRANCH  55  70
ATOM     70  N   UNL     1     -42.728  41.142  29.028  1.00  0.00    -0.383 N 
ATOM     71  H   UNL     1     -41.877  40.981  29.557  1.00  0.00     0.158 HD
ATOM     72  H   UNL     1     -42.587  41.445  28.071  1.00  0.00     0.158 HD
ENDBRANCH  55  70
ENDBRANCH  44  48
ENDBRANCH   1  39
TORSDOF 12
ENDMDL
