MODEL 1
REMARK VINA RESULT:     -10.0      0.000      0.000
REMARK SMILES N#Cc1ncc(Cl)cc1-c1cn(Cc2ccc3cc(CNCC4CCC4)[nH]c3c2)nn1
REMARK SMILES IDX 14 1 15 2 16 3 17 4 18 5 19 6 27 7 28 8 29 9 13 15 12 18
REMARK SMILES IDX 10 19 11 20 31 21 30 23 9 24 3 25 4 26 5 27 8 28 6 29 7 32
REMARK SMILES IDX 2 33 1 34 20 35 21 38 22 40 23 43 24 44 26 45 25 47
REMARK H PARENT 15 10 16 11 18 12 27 13 29 14 13 16 13 17 11 22 5 30 8 31
REMARK H PARENT 20 36 20 37 21 39 22 41 22 42 23 46 24 48 24 49 26 50 26 51
REMARK H PARENT 25 52 25 53
REMARK Flexibility Score: inf
ROOT
ATOM      1  C   UNL     1     -47.978  35.029  26.758  1.00  0.00    -0.024 A 
ATOM      2  C   UNL     1     -46.671  35.069  26.255  1.00  0.00    -0.056 A 
ATOM      3  C   UNL     1     -46.170  34.032  25.456  1.00  0.00    -0.052 A 
ATOM      4  C   UNL     1     -46.994  32.932  25.157  1.00  0.00    -0.000 A 
ATOM      5  C   UNL     1     -46.818  31.741  24.403  1.00  0.00    -0.032 A 
ATOM      6  C   UNL     1     -47.993  31.016  24.462  1.00  0.00     0.030 A 
ATOM      7  N   UNL     1     -48.874  31.740  25.230  1.00  0.00    -0.357 N 
ATOM      8  C   UNL     1     -48.291  32.907  25.664  1.00  0.00     0.046 A 
ATOM      9  C   UNL     1     -48.811  33.935  26.461  1.00  0.00    -0.033 A 
ATOM     10  H   UNL     1     -46.016  35.912  26.476  1.00  0.00     0.063 H 
ATOM     11  H   UNL     1     -45.155  34.077  25.072  1.00  0.00     0.063 H 
ATOM     12  H   UNL     1     -45.928  31.441  23.864  1.00  0.00     0.065 H 
ATOM     13  H   UNL     1     -49.821  31.461  25.448  1.00  0.00     0.166 HD
ATOM     14  H   UNL     1     -49.827  33.882  26.846  1.00  0.00     0.065 H 
ENDROOT
BRANCH   1  15
ATOM     15  C   UNL     1     -48.494  36.153  27.625  1.00  0.00     0.068 C 
ATOM     16  H   UNL     1     -48.789  35.772  28.609  1.00  0.00     0.057 H 
ATOM     17  H   UNL     1     -49.373  36.633  27.182  1.00  0.00     0.057 H 
BRANCH  15  18
ATOM     18  N   UNL     1     -47.491  37.186  27.807  1.00  0.00    -0.247 N 
ATOM     19  C   UNL     1     -46.236  38.939  27.668  1.00  0.00     0.116 A 
ATOM     20  C   UNL     1     -47.247  38.272  27.013  1.00  0.00     0.054 A 
ATOM     21  N   UNL     1     -45.892  38.239  28.796  1.00  0.00    -0.130 NA
ATOM     22  H   UNL     1     -47.789  38.441  26.094  1.00  0.00     0.086 H 
ATOM     23  N   UNL     1     -46.679  37.175  28.880  1.00  0.00    -0.066 NA
BRANCH  19  24
ATOM     24  C   UNL     1     -45.560  40.153  27.258  1.00  0.00     0.042 A 
ATOM     25  C   UNL     1     -46.208  41.292  26.767  1.00  0.00     0.150 A 
ATOM     26  N   UNL     1     -45.549  42.424  26.384  1.00  0.00    -0.243 NA
ATOM     27  C   UNL     1     -44.200  42.427  26.505  1.00  0.00     0.047 A 
ATOM     28  C   UNL     1     -44.161  40.209  27.375  1.00  0.00    -0.029 A 
ATOM     29  C   UNL     1     -43.473  41.355  26.993  1.00  0.00     0.060 A 
ATOM     30  H   UNL     1     -43.710  43.345  26.192  1.00  0.00     0.086 H 
ATOM     31  H   UNL     1     -43.611  39.353  27.764  1.00  0.00     0.065 H 
ATOM     32  Cl  UNL     1     -41.764  41.434  27.122  1.00  0.00    -0.083 Cl
BRANCH  25  33
ATOM     33  C   UNL     1     -47.639  41.387  26.651  1.00  0.00     0.120 C 
ATOM     34  N   UNL     1     -48.792  41.474  26.523  1.00  0.00    -0.191 NA
ENDBRANCH  25  33
ENDBRANCH  19  24
ENDBRANCH  15  18
ENDBRANCH   1  15
BRANCH   6  35
ATOM     35  C   UNL     1     -48.357  29.701  23.862  1.00  0.00     0.036 C 
ATOM     36  H   UNL     1     -48.132  29.713  22.790  1.00  0.00     0.049 H 
ATOM     37  H   UNL     1     -49.437  29.548  23.974  1.00  0.00     0.049 H 
BRANCH  35  38
ATOM     38  N   UNL     1     -47.621  28.651  24.548  1.00  0.00    -0.311 NA
ATOM     39  H   UNL     1     -46.750  28.454  24.061  1.00  0.00     0.123 HD
BRANCH  38  40
ATOM     40  C   UNL     1     -48.397  27.428  24.745  1.00  0.00    -0.002 C 
ATOM     41  H   UNL     1     -49.453  27.717  24.803  1.00  0.00     0.043 H 
ATOM     42  H   UNL     1     -48.311  26.775  23.867  1.00  0.00     0.043 H 
BRANCH  40  43
ATOM     43  C   UNL     1     -48.000  26.675  26.007  1.00  0.00    -0.029 C 
ATOM     44  C   UNL     1     -48.700  25.316  26.284  1.00  0.00    -0.049 C 
ATOM     45  C   UNL     1     -46.676  25.867  25.917  1.00  0.00    -0.049 C 
ATOM     46  H   UNL     1     -47.998  27.327  26.894  1.00  0.00     0.032 H 
ATOM     47  C   UNL     1     -47.345  24.809  26.817  1.00  0.00    -0.053 C 
ATOM     48  H   UNL     1     -49.515  25.343  27.012  1.00  0.00     0.027 H 
ATOM     49  H   UNL     1     -49.042  24.789  25.385  1.00  0.00     0.027 H 
ATOM     50  H   UNL     1     -46.435  25.496  24.914  1.00  0.00     0.027 H 
ATOM     51  H   UNL     1     -45.793  26.354  26.337  1.00  0.00     0.027 H 
ATOM     52  H   UNL     1     -47.103  23.768  26.590  1.00  0.00     0.027 H 
ATOM     53  H   UNL     1     -47.199  24.985  27.890  1.00  0.00     0.027 H 
ENDBRANCH  40  43
ENDBRANCH  38  40
ENDBRANCH  35  38
ENDBRANCH   6  35
TORSDOF 8
ENDMDL
MODEL 2
REMARK VINA RESULT:      -9.7      1.432      2.307
REMARK SMILES N#Cc1ncc(Cl)cc1-c1cn(Cc2ccc3cc(CNCC4CCC4)[nH]c3c2)nn1
REMARK SMILES IDX 14 1 15 2 16 3 17 4 18 5 19 6 27 7 28 8 29 9 13 15 12 18
REMARK SMILES IDX 10 19 11 20 31 21 30 23 9 24 3 25 4 26 5 27 8 28 6 29 7 32
REMARK SMILES IDX 2 33 1 34 20 35 21 38 22 40 23 43 24 44 26 45 25 47
REMARK H PARENT 15 10 16 11 18 12 27 13 29 14 13 16 13 17 11 22 5 30 8 31
REMARK H PARENT 20 36 20 37 21 39 22 41 22 42 23 46 24 48 24 49 26 50 26 51
REMARK H PARENT 25 52 25 53
REMARK Flexibility Score: inf
ROOT
ATOM      1  C   UNL     1     -47.858  35.368  26.844  1.00  0.00    -0.024 A 
ATOM      2  C   UNL     1     -46.566  35.228  26.320  1.00  0.00    -0.056 A 
ATOM      3  C   UNL     1     -46.187  34.072  25.625  1.00  0.00    -0.052 A 
ATOM      4  C   UNL     1     -47.121  33.034  25.452  1.00  0.00    -0.000 A 
ATOM      5  C   UNL     1     -47.079  31.762  24.821  1.00  0.00    -0.032 A 
ATOM      6  C   UNL     1     -48.317  31.166  24.971  1.00  0.00     0.030 A 
ATOM      7  N   UNL     1     -49.105  32.046  25.673  1.00  0.00    -0.357 N 
ATOM      8  C   UNL     1     -48.401  33.189  25.977  1.00  0.00     0.046 A 
ATOM      9  C   UNL     1     -48.800  34.337  26.673  1.00  0.00    -0.033 A 
ATOM     10  H   UNL     1     -45.828  36.020  26.445  1.00  0.00     0.063 H 
ATOM     11  H   UNL     1     -45.183  33.978  25.223  1.00  0.00     0.063 H 
ATOM     12  H   UNL     1     -46.235  31.323  24.304  1.00  0.00     0.065 H 
ATOM     13  H   UNL     1     -50.069  31.886  25.933  1.00  0.00     0.166 HD
ATOM     14  H   UNL     1     -49.807  34.423  27.075  1.00  0.00     0.065 H 
ENDROOT
BRANCH   1  15
ATOM     15  C   UNL     1     -48.242  36.619  27.598  1.00  0.00     0.068 C 
ATOM     16  H   UNL     1     -48.370  36.398  28.664  1.00  0.00     0.057 H 
ATOM     17  H   UNL     1     -49.187  37.036  27.233  1.00  0.00     0.057 H 
BRANCH  15  18
ATOM     18  N   UNL     1     -47.236  37.655  27.454  1.00  0.00    -0.247 N 
ATOM     19  C   UNL     1     -45.551  38.988  27.681  1.00  0.00     0.116 A 
ATOM     20  C   UNL     1     -46.235  37.983  28.327  1.00  0.00     0.054 A 
ATOM     21  N   UNL     1     -46.159  39.246  26.480  1.00  0.00    -0.130 NA
ATOM     22  H   UNL     1     -46.129  37.494  29.284  1.00  0.00     0.086 H 
ATOM     23  N   UNL     1     -47.181  38.413  26.344  1.00  0.00    -0.066 NA
BRANCH  19  24
ATOM     24  C   UNL     1     -44.405  39.733  28.160  1.00  0.00     0.042 A 
ATOM     25  C   UNL     1     -43.801  39.542  29.408  1.00  0.00     0.150 A 
ATOM     26  N   UNL     1     -42.723  40.259  29.838  1.00  0.00    -0.243 NA
ATOM     27  C   UNL     1     -42.220  41.190  28.993  1.00  0.00     0.047 A 
ATOM     28  C   UNL     1     -43.839  40.702  27.314  1.00  0.00    -0.029 A 
ATOM     29  C   UNL     1     -42.738  41.440  27.734  1.00  0.00     0.060 A 
ATOM     30  H   UNL     1     -41.361  41.739  29.370  1.00  0.00     0.086 H 
ATOM     31  H   UNL     1     -44.264  40.880  26.327  1.00  0.00     0.065 H 
ATOM     32  Cl  UNL     1     -42.043  42.632  26.715  1.00  0.00    -0.083 Cl
BRANCH  25  33
ATOM     33  C   UNL     1     -44.245  38.545  30.345  1.00  0.00     0.120 C 
ATOM     34  N   UNL     1     -44.571  37.726  31.106  1.00  0.00    -0.191 NA
ENDBRANCH  25  33
ENDBRANCH  19  24
ENDBRANCH  15  18
ENDBRANCH   1  15
BRANCH   6  35
ATOM     35  C   UNL     1     -48.821  29.840  24.514  1.00  0.00     0.036 C 
ATOM     36  H   UNL     1     -49.200  29.925  23.490  1.00  0.00     0.049 H 
ATOM     37  H   UNL     1     -49.658  29.539  25.155  1.00  0.00     0.049 H 
BRANCH  35  38
ATOM     38  N   UNL     1     -47.741  28.870  24.602  1.00  0.00    -0.311 NA
ATOM     39  H   UNL     1     -47.051  29.042  23.874  1.00  0.00     0.123 HD
BRANCH  38  40
ATOM     40  C   UNL     1     -48.198  27.482  24.572  1.00  0.00    -0.002 C 
ATOM     41  H   UNL     1     -49.285  27.500  24.430  1.00  0.00     0.043 H 
ATOM     42  H   UNL     1     -47.788  26.964  23.696  1.00  0.00     0.043 H 
BRANCH  40  43
ATOM     43  C   UNL     1     -47.859  26.722  25.846  1.00  0.00    -0.029 C 
ATOM     44  C   UNL     1     -48.735  25.489  26.202  1.00  0.00    -0.049 C 
ATOM     45  C   UNL     1     -46.670  25.727  25.737  1.00  0.00    -0.049 C 
ATOM     46  H   UNL     1     -47.725  27.395  26.706  1.00  0.00     0.032 H 
ATOM     47  C   UNL     1     -47.445  24.808  26.703  1.00  0.00    -0.053 C 
ATOM     48  H   UNL     1     -49.505  25.658  26.960  1.00  0.00     0.027 H 
ATOM     49  H   UNL     1     -49.188  24.988  25.339  1.00  0.00     0.027 H 
ATOM     50  H   UNL     1     -46.529  25.292  24.741  1.00  0.00     0.027 H 
ATOM     51  H   UNL     1     -45.709  26.095  26.103  1.00  0.00     0.027 H 
ATOM     52  H   UNL     1     -47.365  23.736  26.507  1.00  0.00     0.027 H 
ATOM     53  H   UNL     1     -47.229  24.997  27.761  1.00  0.00     0.027 H 
ENDBRANCH  40  43
ENDBRANCH  38  40
ENDBRANCH  35  38
ENDBRANCH   6  35
TORSDOF 8
ENDMDL
MODEL 3
REMARK VINA RESULT:      -9.7      1.561      2.451
REMARK SMILES N#Cc1ncc(Cl)cc1-c1cn(Cc2ccc3cc(CNCC4CCC4)[nH]c3c2)nn1
REMARK SMILES IDX 14 1 15 2 16 3 17 4 18 5 19 6 27 7 28 8 29 9 13 15 12 18
REMARK SMILES IDX 10 19 11 20 31 21 30 23 9 24 3 25 4 26 5 27 8 28 6 29 7 32
REMARK SMILES IDX 2 33 1 34 20 35 21 38 22 40 23 43 24 44 26 45 25 47
REMARK H PARENT 15 10 16 11 18 12 27 13 29 14 13 16 13 17 11 22 5 30 8 31
REMARK H PARENT 20 36 20 37 21 39 22 41 22 42 23 46 24 48 24 49 26 50 26 51
REMARK H PARENT 25 52 25 53
REMARK Flexibility Score: inf
ROOT
ATOM      1  C   UNL     1     -46.436  35.857  28.521  1.00  0.00    -0.024 A 
ATOM      2  C   UNL     1     -47.788  36.000  28.179  1.00  0.00    -0.056 A 
ATOM      3  C   UNL     1     -48.349  35.273  27.120  1.00  0.00    -0.052 A 
ATOM      4  C   UNL     1     -47.539  34.386  26.387  1.00  0.00    -0.000 A 
ATOM      5  C   UNL     1     -47.769  33.518  25.286  1.00  0.00    -0.032 A 
ATOM      6  C   UNL     1     -46.581  32.880  24.986  1.00  0.00     0.030 A 
ATOM      7  N   UNL     1     -45.641  33.338  25.878  1.00  0.00    -0.357 N 
ATOM      8  C   UNL     1     -46.198  34.254  26.740  1.00  0.00     0.046 A 
ATOM      9  C   UNL     1     -45.620  34.969  27.796  1.00  0.00    -0.033 A 
ATOM     10  H   UNL     1     -48.431  36.683  28.733  1.00  0.00     0.063 H 
ATOM     11  H   UNL     1     -49.398  35.393  26.868  1.00  0.00     0.063 H 
ATOM     12  H   UNL     1     -48.706  33.366  24.766  1.00  0.00     0.065 H 
ATOM     13  H   UNL     1     -44.674  33.046  25.906  1.00  0.00     0.166 HD
ATOM     14  H   UNL     1     -44.568  34.846  28.041  1.00  0.00     0.065 H 
ENDROOT
BRANCH   1  15
ATOM     15  C   UNL     1     -45.850  36.657  29.660  1.00  0.00     0.068 C 
ATOM     16  H   UNL     1     -45.108  36.060  30.202  1.00  0.00     0.057 H 
ATOM     17  H   UNL     1     -46.619  36.957  30.379  1.00  0.00     0.057 H 
BRANCH  15  18
ATOM     18  N   UNL     1     -45.214  37.871  29.183  1.00  0.00    -0.247 N 
ATOM     19  C   UNL     1     -44.635  39.650  28.103  1.00  0.00     0.116 A 
ATOM     20  C   UNL     1     -45.484  38.568  28.038  1.00  0.00     0.054 A 
ATOM     21  N   UNL     1     -43.880  39.561  29.245  1.00  0.00    -0.130 NA
ATOM     22  H   UNL     1     -46.214  38.226  27.319  1.00  0.00     0.086 H 
ATOM     23  N   UNL     1     -44.254  38.476  29.907  1.00  0.00    -0.066 NA
BRANCH  19  24
ATOM     24  C   UNL     1     -44.473  40.713  27.132  1.00  0.00     0.042 A 
ATOM     25  C   UNL     1     -45.520  41.281  26.398  1.00  0.00     0.150 A 
ATOM     26  N   UNL     1     -45.341  42.280  25.485  1.00  0.00    -0.243 NA
ATOM     27  C   UNL     1     -44.080  42.739  25.307  1.00  0.00     0.047 A 
ATOM     28  C   UNL     1     -43.184  41.231  26.920  1.00  0.00    -0.029 A 
ATOM     29  C   UNL     1     -42.983  42.251  25.997  1.00  0.00     0.060 A 
ATOM     30  H   UNL     1     -43.977  43.535  24.574  1.00  0.00     0.086 H 
ATOM     31  H   UNL     1     -42.337  40.832  27.476  1.00  0.00     0.065 H 
ATOM     32  Cl  UNL     1     -41.414  42.886  25.722  1.00  0.00    -0.083 Cl
BRANCH  25  33
ATOM     33  C   UNL     1     -46.893  40.883  26.560  1.00  0.00     0.120 C 
ATOM     34  N   UNL     1     -48.004  40.552  26.658  1.00  0.00    -0.191 NA
ENDBRANCH  25  33
ENDBRANCH  19  24
ENDBRANCH  15  18
ENDBRANCH   1  15
BRANCH   6  35
ATOM     35  C   UNL     1     -46.253  31.880  23.930  1.00  0.00     0.036 C 
ATOM     36  H   UNL     1     -45.168  31.836  23.791  1.00  0.00     0.049 H 
ATOM     37  H   UNL     1     -46.697  32.207  22.982  1.00  0.00     0.049 H 
BRANCH  35  38
ATOM     38  N   UNL     1     -46.792  30.587  24.322  1.00  0.00    -0.311 NA
ATOM     39  H   UNL     1     -46.315  30.243  25.153  1.00  0.00     0.123 HD
BRANCH  38  40
ATOM     40  C   UNL     1     -46.759  29.592  23.253  1.00  0.00    -0.002 C 
ATOM     41  H   UNL     1     -47.253  30.036  22.380  1.00  0.00     0.043 H 
ATOM     42  H   UNL     1     -45.725  29.394  22.946  1.00  0.00     0.043 H 
BRANCH  40  43
ATOM     43  C   UNL     1     -47.458  28.294  23.634  1.00  0.00    -0.029 C 
ATOM     44  C   UNL     1     -46.610  27.204  24.346  1.00  0.00    -0.049 C 
ATOM     45  C   UNL     1     -48.308  28.347  24.934  1.00  0.00    -0.049 C 
ATOM     46  H   UNL     1     -48.046  27.881  22.801  1.00  0.00     0.032 H 
ATOM     47  C   UNL     1     -47.855  26.898  25.203  1.00  0.00    -0.053 C 
ATOM     48  H   UNL     1     -46.261  26.385  23.711  1.00  0.00     0.027 H 
ATOM     49  H   UNL     1     -45.764  27.592  24.925  1.00  0.00     0.027 H 
ATOM     50  H   UNL     1     -47.951  29.063  25.684  1.00  0.00     0.027 H 
ATOM     51  H   UNL     1     -49.382  28.489  24.792  1.00  0.00     0.027 H 
ATOM     52  H   UNL     1     -47.664  26.646  26.249  1.00  0.00     0.027 H 
ATOM     53  H   UNL     1     -48.516  26.140  24.766  1.00  0.00     0.027 H 
ENDBRANCH  40  43
ENDBRANCH  38  40
ENDBRANCH  35  38
ENDBRANCH   6  35
TORSDOF 8
ENDMDL
MODEL 4
REMARK VINA RESULT:      -9.6      2.111      3.681
REMARK SMILES N#Cc1ncc(Cl)cc1-c1cn(Cc2ccc3cc(CNCC4CCC4)[nH]c3c2)nn1
REMARK SMILES IDX 14 1 15 2 16 3 17 4 18 5 19 6 27 7 28 8 29 9 13 15 12 18
REMARK SMILES IDX 10 19 11 20 31 21 30 23 9 24 3 25 4 26 5 27 8 28 6 29 7 32
REMARK SMILES IDX 2 33 1 34 20 35 21 38 22 40 23 43 24 44 26 45 25 47
REMARK H PARENT 15 10 16 11 18 12 27 13 29 14 13 16 13 17 11 22 5 30 8 31
REMARK H PARENT 20 36 20 37 21 39 22 41 22 42 23 46 24 48 24 49 26 50 26 51
REMARK H PARENT 25 52 25 53
REMARK Flexibility Score: inf
ROOT
ATOM      1  C   UNL     1     -46.316  36.900  28.268  1.00  0.00    -0.024 A 
ATOM      2  C   UNL     1     -47.714  36.880  28.167  1.00  0.00    -0.056 A 
ATOM      3  C   UNL     1     -48.372  35.900  27.411  1.00  0.00    -0.052 A 
ATOM      4  C   UNL     1     -47.615  34.922  26.741  1.00  0.00    -0.000 A 
ATOM      5  C   UNL     1     -47.941  33.816  25.911  1.00  0.00    -0.032 A 
ATOM      6  C   UNL     1     -46.764  33.200  25.531  1.00  0.00     0.030 A 
ATOM      7  N   UNL     1     -45.736  33.904  26.112  1.00  0.00    -0.357 N 
ATOM      8  C   UNL     1     -46.227  34.955  26.852  1.00  0.00     0.046 A 
ATOM      9  C   UNL     1     -45.551  35.923  27.604  1.00  0.00    -0.033 A 
ATOM     10  H   UNL     1     -48.318  37.630  28.677  1.00  0.00     0.063 H 
ATOM     11  H   UNL     1     -49.455  35.896  27.343  1.00  0.00     0.063 H 
ATOM     12  H   UNL     1     -48.934  33.494  25.622  1.00  0.00     0.065 H 
ATOM     13  H   UNL     1     -44.754  33.686  26.016  1.00  0.00     0.166 HD
ATOM     14  H   UNL     1     -44.465  35.924  27.666  1.00  0.00     0.065 H 
ENDROOT
BRANCH   1  15
ATOM     15  C   UNL     1     -45.627  37.971  29.081  1.00  0.00     0.068 C 
ATOM     16  H   UNL     1     -44.641  37.624  29.409  1.00  0.00     0.057 H 
ATOM     17  H   UNL     1     -46.201  38.228  29.978  1.00  0.00     0.057 H 
BRANCH  15  18
ATOM     18  N   UNL     1     -45.461  39.193  28.316  1.00  0.00    -0.247 N 
ATOM     19  C   UNL     1     -44.735  40.820  27.094  1.00  0.00     0.116 A 
ATOM     20  C   UNL     1     -44.325  39.664  27.719  1.00  0.00     0.054 A 
ATOM     21  N   UNL     1     -46.069  41.019  27.348  1.00  0.00    -0.130 NA
ATOM     22  H   UNL     1     -43.377  39.153  27.811  1.00  0.00     0.086 H 
ATOM     23  N   UNL     1     -46.507  40.007  28.084  1.00  0.00    -0.066 NA
BRANCH  19  24
ATOM     24  C   UNL     1     -43.932  41.751  26.329  1.00  0.00     0.042 A 
ATOM     25  C   UNL     1     -42.664  42.204  26.712  1.00  0.00     0.150 A 
ATOM     26  N   UNL     1     -41.927  43.084  25.974  1.00  0.00    -0.243 NA
ATOM     27  C   UNL     1     -42.464  43.519  24.809  1.00  0.00     0.047 A 
ATOM     28  C   UNL     1     -44.441  42.222  25.107  1.00  0.00    -0.029 A 
ATOM     29  C   UNL     1     -43.702  43.116  24.340  1.00  0.00     0.060 A 
ATOM     30  H   UNL     1     -41.847  44.217  24.250  1.00  0.00     0.086 H 
ATOM     31  H   UNL     1     -45.417  41.890  24.757  1.00  0.00     0.065 H 
ATOM     32  Cl  UNL     1     -44.315  43.707  22.851  1.00  0.00    -0.083 Cl
BRANCH  25  33
ATOM     33  C   UNL     1     -42.004  41.756  27.909  1.00  0.00     0.120 C 
ATOM     34  N   UNL     1     -41.460  41.427  28.884  1.00  0.00    -0.191 NA
ENDBRANCH  25  33
ENDBRANCH  19  24
ENDBRANCH  15  18
ENDBRANCH   1  15
BRANCH   6  35
ATOM     35  C   UNL     1     -46.523  32.010  24.667  1.00  0.00     0.036 C 
ATOM     36  H   UNL     1     -45.929  31.273  25.217  1.00  0.00     0.049 H 
ATOM     37  H   UNL     1     -45.939  32.321  23.791  1.00  0.00     0.049 H 
BRANCH  35  38
ATOM     38  N   UNL     1     -47.804  31.461  24.253  1.00  0.00    -0.311 NA
ATOM     39  H   UNL     1     -48.243  30.967  25.027  1.00  0.00     0.123 HD
BRANCH  38  40
ATOM     40  C   UNL     1     -47.719  30.608  23.070  1.00  0.00    -0.002 C 
ATOM     41  H   UNL     1     -48.416  31.013  22.325  1.00  0.00     0.043 H 
ATOM     42  H   UNL     1     -46.722  30.678  22.619  1.00  0.00     0.043 H 
BRANCH  40  43
ATOM     43  C   UNL     1     -48.068  29.156  23.364  1.00  0.00    -0.029 C 
ATOM     44  C   UNL     1     -46.897  28.185  23.679  1.00  0.00    -0.049 C 
ATOM     45  C   UNL     1     -48.571  28.866  24.806  1.00  0.00    -0.049 C 
ATOM     46  H   UNL     1     -48.762  28.738  22.619  1.00  0.00     0.032 H 
ATOM     47  C   UNL     1     -47.823  27.521  24.718  1.00  0.00    -0.053 C 
ATOM     48  H   UNL     1     -46.578  27.544  22.852  1.00  0.00     0.027 H 
ATOM     49  H   UNL     1     -46.015  28.663  24.120  1.00  0.00     0.027 H 
ATOM     50  H   UNL     1     -48.170  29.539  25.573  1.00  0.00     0.027 H 
ATOM     51  H   UNL     1     -49.655  28.797  24.925  1.00  0.00     0.027 H 
ATOM     52  H   UNL     1     -47.340  27.183  25.639  1.00  0.00     0.027 H 
ATOM     53  H   UNL     1     -48.429  26.703  24.311  1.00  0.00     0.027 H 
ENDBRANCH  40  43
ENDBRANCH  38  40
ENDBRANCH  35  38
ENDBRANCH   6  35
TORSDOF 8
ENDMDL
MODEL 5
REMARK VINA RESULT:      -9.1      1.941      2.750
REMARK SMILES N#Cc1ncc(Cl)cc1-c1cn(Cc2ccc3cc(CNCC4CCC4)[nH]c3c2)nn1
REMARK SMILES IDX 14 1 15 2 16 3 17 4 18 5 19 6 27 7 28 8 29 9 13 15 12 18
REMARK SMILES IDX 10 19 11 20 31 21 30 23 9 24 3 25 4 26 5 27 8 28 6 29 7 32
REMARK SMILES IDX 2 33 1 34 20 35 21 38 22 40 23 43 24 44 26 45 25 47
REMARK H PARENT 15 10 16 11 18 12 27 13 29 14 13 16 13 17 11 22 5 30 8 31
REMARK H PARENT 20 36 20 37 21 39 22 41 22 42 23 46 24 48 24 49 26 50 26 51
REMARK H PARENT 25 52 25 53
REMARK Flexibility Score: inf
ROOT
ATOM      1  C   UNL     1     -46.495  34.498  27.149  1.00  0.00    -0.024 A 
ATOM      2  C   UNL     1     -47.824  34.941  27.127  1.00  0.00    -0.056 A 
ATOM      3  C   UNL     1     -48.833  34.177  26.526  1.00  0.00    -0.052 A 
ATOM      4  C   UNL     1     -48.504  32.943  25.934  1.00  0.00    -0.000 A 
ATOM      5  C   UNL     1     -49.250  31.942  25.257  1.00  0.00    -0.032 A 
ATOM      6  C   UNL     1     -48.381  30.933  24.888  1.00  0.00     0.030 A 
ATOM      7  N   UNL     1     -47.131  31.298  25.327  1.00  0.00    -0.357 N 
ATOM      8  C   UNL     1     -47.179  32.516  25.966  1.00  0.00     0.046 A 
ATOM      9  C   UNL     1     -46.157  33.264  26.564  1.00  0.00    -0.033 A 
ATOM     10  H   UNL     1     -48.098  35.894  27.578  1.00  0.00     0.063 H 
ATOM     11  H   UNL     1     -49.859  34.532  26.517  1.00  0.00     0.063 H 
ATOM     12  H   UNL     1     -50.315  31.949  25.061  1.00  0.00     0.065 H 
ATOM     13  H   UNL     1     -46.288  30.754  25.205  1.00  0.00     0.166 HD
ATOM     14  H   UNL     1     -45.131  32.903  26.566  1.00  0.00     0.065 H 
ENDROOT
BRANCH   1  15
ATOM     15  C   UNL     1     -45.421  35.342  27.795  1.00  0.00     0.068 C 
ATOM     16  H   UNL     1     -44.531  35.378  27.157  1.00  0.00     0.057 H 
ATOM     17  H   UNL     1     -45.115  34.934  28.764  1.00  0.00     0.057 H 
BRANCH  15  18
ATOM     18  N   UNL     1     -45.882  36.698  28.028  1.00  0.00    -0.247 N 
ATOM     19  C   UNL     1     -46.637  38.715  27.859  1.00  0.00     0.116 A 
ATOM     20  C   UNL     1     -46.234  37.639  27.101  1.00  0.00     0.054 A 
ATOM     21  N   UNL     1     -46.497  38.406  29.188  1.00  0.00    -0.130 NA
ATOM     22  H   UNL     1     -46.149  37.455  26.040  1.00  0.00     0.086 H 
ATOM     23  N   UNL     1     -46.048  37.162  29.281  1.00  0.00    -0.066 NA
BRANCH  19  24
ATOM     24  C   UNL     1     -47.090  40.010  27.394  1.00  0.00     0.042 A 
ATOM     25  C   UNL     1     -46.254  40.999  26.866  1.00  0.00     0.150 A 
ATOM     26  N   UNL     1     -46.704  42.214  26.437  1.00  0.00    -0.243 NA
ATOM     27  C   UNL     1     -48.036  42.447  26.526  1.00  0.00     0.047 A 
ATOM     28  C   UNL     1     -48.465  40.295  27.455  1.00  0.00    -0.029 A 
ATOM     29  C   UNL     1     -48.943  41.526  27.020  1.00  0.00     0.060 A 
ATOM     30  H   UNL     1     -48.357  43.425  26.174  1.00  0.00     0.086 H 
ATOM     31  H   UNL     1     -49.160  39.554  27.847  1.00  0.00     0.065 H 
ATOM     32  Cl  UNL     1     -50.617  41.892  27.097  1.00  0.00    -0.083 Cl
BRANCH  25  33
ATOM     33  C   UNL     1     -44.837  40.814  26.695  1.00  0.00     0.120 C 
ATOM     34  N   UNL     1     -43.691  40.647  26.587  1.00  0.00    -0.191 NA
ENDBRANCH  25  33
ENDBRANCH  19  24
ENDBRANCH  15  18
ENDBRANCH   1  15
BRANCH   6  35
ATOM     35  C   UNL     1     -48.624  29.658  24.156  1.00  0.00     0.036 C 
ATOM     36  H   UNL     1     -48.260  29.751  23.127  1.00  0.00     0.049 H 
ATOM     37  H   UNL     1     -49.705  29.476  24.111  1.00  0.00     0.049 H 
BRANCH  35  38
ATOM     38  N   UNL     1     -47.957  28.575  24.861  1.00  0.00    -0.311 NA
ATOM     39  H   UNL     1     -47.637  27.869  24.202  1.00  0.00     0.123 HD
BRANCH  38  40
ATOM     40  C   UNL     1     -48.771  27.975  25.915  1.00  0.00    -0.002 C 
ATOM     41  H   UNL     1     -49.009  28.768  26.635  1.00  0.00     0.043 H 
ATOM     42  H   UNL     1     -49.733  27.637  25.509  1.00  0.00     0.043 H 
BRANCH  40  43
ATOM     43  C   UNL     1     -48.063  26.830  26.627  1.00  0.00    -0.029 C 
ATOM     44  C   UNL     1     -48.708  25.420  26.536  1.00  0.00    -0.049 C 
ATOM     45  C   UNL     1     -46.850  26.220  25.872  1.00  0.00    -0.049 C 
ATOM     46  H   UNL     1     -47.788  27.093  27.659  1.00  0.00     0.032 H 
ATOM     47  C   UNL     1     -47.277  24.851  26.439  1.00  0.00    -0.053 C 
ATOM     48  H   UNL     1     -49.283  25.104  27.411  1.00  0.00     0.027 H 
ATOM     49  H   UNL     1     -49.308  25.251  25.635  1.00  0.00     0.027 H 
ATOM     50  H   UNL     1     -46.915  26.279  24.779  1.00  0.00     0.027 H 
ATOM     51  H   UNL     1     -45.867  26.576  26.189  1.00  0.00     0.027 H 
ATOM     52  H   UNL     1     -47.148  23.997  25.770  1.00  0.00     0.027 H 
ATOM     53  H   UNL     1     -46.829  24.616  27.412  1.00  0.00     0.027 H 
ENDBRANCH  40  43
ENDBRANCH  38  40
ENDBRANCH  35  38
ENDBRANCH   6  35
TORSDOF 8
ENDMDL
MODEL 6
REMARK VINA RESULT:      -9.0      3.587     11.604
REMARK SMILES N#Cc1ncc(Cl)cc1-c1cn(Cc2ccc3cc(CNCC4CCC4)[nH]c3c2)nn1
REMARK SMILES IDX 14 1 15 2 16 3 17 4 18 5 19 6 27 7 28 8 29 9 13 15 12 18
REMARK SMILES IDX 10 19 11 20 31 21 30 23 9 24 3 25 4 26 5 27 8 28 6 29 7 32
REMARK SMILES IDX 2 33 1 34 20 35 21 38 22 40 23 43 24 44 26 45 25 47
REMARK H PARENT 15 10 16 11 18 12 27 13 29 14 13 16 13 17 11 22 5 30 8 31
REMARK H PARENT 20 36 20 37 21 39 22 41 22 42 23 46 24 48 24 49 26 50 26 51
REMARK H PARENT 25 52 25 53
REMARK Flexibility Score: inf
ROOT
ATOM      1  C   UNL     1     -47.111  32.856  24.874  1.00  0.00    -0.024 A 
ATOM      2  C   UNL     1     -48.394  32.611  25.380  1.00  0.00    -0.056 A 
ATOM      3  C   UNL     1     -49.017  33.518  26.249  1.00  0.00    -0.052 A 
ATOM      4  C   UNL     1     -48.339  34.694  26.620  1.00  0.00    -0.000 A 
ATOM      5  C   UNL     1     -48.658  35.797  27.455  1.00  0.00    -0.032 A 
ATOM      6  C   UNL     1     -47.588  36.671  27.443  1.00  0.00     0.030 A 
ATOM      7  N   UNL     1     -46.632  36.125  26.619  1.00  0.00    -0.357 N 
ATOM      8  C   UNL     1     -47.064  34.924  26.107  1.00  0.00     0.046 A 
ATOM      9  C   UNL     1     -46.427  34.032  25.236  1.00  0.00    -0.033 A 
ATOM     10  H   UNL     1     -48.935  31.706  25.106  1.00  0.00     0.063 H 
ATOM     11  H   UNL     1     -50.012  33.315  26.632  1.00  0.00     0.063 H 
ATOM     12  H   UNL     1     -49.577  35.946  28.007  1.00  0.00     0.065 H 
ATOM     13  H   UNL     1     -45.735  36.542  26.412  1.00  0.00     0.166 HD
ATOM     14  H   UNL     1     -45.428  34.239  24.858  1.00  0.00     0.065 H 
ENDROOT
BRANCH   1  15
ATOM     15  C   UNL     1     -46.455  31.861  23.946  1.00  0.00     0.068 C 
ATOM     16  H   UNL     1     -45.440  31.631  24.289  1.00  0.00     0.057 H 
ATOM     17  H   UNL     1     -46.377  32.251  22.926  1.00  0.00     0.057 H 
BRANCH  15  18
ATOM     18  N   UNL     1     -47.213  30.625  23.873  1.00  0.00    -0.247 N 
ATOM     19  C   UNL     1     -48.266  28.784  24.282  1.00  0.00     0.116 A 
ATOM     20  C   UNL     1     -47.476  29.739  24.880  1.00  0.00     0.054 A 
ATOM     21  N   UNL     1     -48.432  29.103  22.958  1.00  0.00    -0.130 NA
ATOM     22  H   UNL     1     -47.076  29.869  25.875  1.00  0.00     0.086 H 
ATOM     23  N   UNL     1     -47.795  30.242  22.722  1.00  0.00    -0.066 NA
BRANCH  19  24
ATOM     24  C   UNL     1     -48.817  27.584  24.878  1.00  0.00     0.042 A 
ATOM     25  C   UNL     1     -50.171  27.230  24.838  1.00  0.00     0.150 A 
ATOM     26  N   UNL     1     -50.667  26.095  25.410  1.00  0.00    -0.243 NA
ATOM     27  C   UNL     1     -49.785  25.278  26.032  1.00  0.00     0.047 A 
ATOM     28  C   UNL     1     -47.940  26.698  25.525  1.00  0.00    -0.029 A 
ATOM     29  C   UNL     1     -48.427  25.535  26.111  1.00  0.00     0.060 A 
ATOM     30  H   UNL     1     -50.217  24.384  26.475  1.00  0.00     0.086 H 
ATOM     31  H   UNL     1     -46.875  26.921  25.573  1.00  0.00     0.065 H 
ATOM     32  Cl  UNL     1     -47.369  24.449  26.912  1.00  0.00    -0.083 Cl
BRANCH  25  33
ATOM     33  C   UNL     1     -51.164  28.019  24.159  1.00  0.00     0.120 C 
ATOM     34  N   UNL     1     -51.984  28.661  23.640  1.00  0.00    -0.191 NA
ENDBRANCH  25  33
ENDBRANCH  19  24
ENDBRANCH  15  18
ENDBRANCH   1  15
BRANCH   6  35
ATOM     35  C   UNL     1     -47.385  37.972  28.140  1.00  0.00     0.036 C 
ATOM     36  H   UNL     1     -47.441  37.820  29.223  1.00  0.00     0.049 H 
ATOM     37  H   UNL     1     -48.196  38.655  27.859  1.00  0.00     0.049 H 
BRANCH  35  38
ATOM     38  N   UNL     1     -46.099  38.523  27.746  1.00  0.00    -0.311 NA
ATOM     39  H   UNL     1     -45.579  38.829  28.565  1.00  0.00     0.123 HD
BRANCH  38  40
ATOM     40  C   UNL     1     -46.201  39.598  26.761  1.00  0.00    -0.002 C 
ATOM     41  H   UNL     1     -46.007  39.158  25.775  1.00  0.00     0.043 H 
ATOM     42  H   UNL     1     -47.227  39.984  26.722  1.00  0.00     0.043 H 
BRANCH  40  43
ATOM     43  C   UNL     1     -45.217  40.731  27.020  1.00  0.00    -0.029 C 
ATOM     44  C   UNL     1     -43.950  40.404  27.858  1.00  0.00    -0.049 C 
ATOM     45  C   UNL     1     -44.245  41.055  25.852  1.00  0.00    -0.049 C 
ATOM     46  H   UNL     1     -45.721  41.644  27.372  1.00  0.00     0.032 H 
ATOM     47  C   UNL     1     -43.174  41.352  26.921  1.00  0.00    -0.053 C 
ATOM     48  H   UNL     1     -43.986  40.704  28.909  1.00  0.00     0.027 H 
ATOM     49  H   UNL     1     -43.620  39.361  27.796  1.00  0.00     0.027 H 
ATOM     50  H   UNL     1     -43.998  40.199  25.213  1.00  0.00     0.027 H 
ATOM     51  H   UNL     1     -44.529  41.900  25.220  1.00  0.00     0.027 H 
ATOM     52  H   UNL     1     -42.155  41.047  26.672  1.00  0.00     0.027 H 
ATOM     53  H   UNL     1     -43.165  42.395  27.259  1.00  0.00     0.027 H 
ENDBRANCH  40  43
ENDBRANCH  38  40
ENDBRANCH  35  38
ENDBRANCH   6  35
TORSDOF 8
ENDMDL
MODEL 7
REMARK VINA RESULT:      -8.9      2.728      3.314
REMARK SMILES N#Cc1ncc(Cl)cc1-c1cn(Cc2ccc3cc(CNCC4CCC4)[nH]c3c2)nn1
REMARK SMILES IDX 14 1 15 2 16 3 17 4 18 5 19 6 27 7 28 8 29 9 13 15 12 18
REMARK SMILES IDX 10 19 11 20 31 21 30 23 9 24 3 25 4 26 5 27 8 28 6 29 7 32
REMARK SMILES IDX 2 33 1 34 20 35 21 38 22 40 23 43 24 44 26 45 25 47
REMARK H PARENT 15 10 16 11 18 12 27 13 29 14 13 16 13 17 11 22 5 30 8 31
REMARK H PARENT 20 36 20 37 21 39 22 41 22 42 23 46 24 48 24 49 26 50 26 51
REMARK H PARENT 25 52 25 53
REMARK Flexibility Score: inf
ROOT
ATOM      1  C   UNL     1     -47.020  35.765  27.624  1.00  0.00    -0.024 A 
ATOM      2  C   UNL     1     -48.383  35.483  27.461  1.00  0.00    -0.056 A 
ATOM      3  C   UNL     1     -48.814  34.443  26.626  1.00  0.00    -0.052 A 
ATOM      4  C   UNL     1     -47.859  33.671  25.938  1.00  0.00    -0.000 A 
ATOM      5  C   UNL     1     -47.938  32.576  25.036  1.00  0.00    -0.032 A 
ATOM      6  C   UNL     1     -46.652  32.222  24.675  1.00  0.00     0.030 A 
ATOM      7  N   UNL     1     -45.799  33.074  25.337  1.00  0.00    -0.357 N 
ATOM      8  C   UNL     1     -46.509  33.963  26.110  1.00  0.00     0.046 A 
ATOM      9  C   UNL     1     -46.058  34.996  26.943  1.00  0.00    -0.033 A 
ATOM     10  H   UNL     1     -49.137  36.070  27.984  1.00  0.00     0.063 H 
ATOM     11  H   UNL     1     -49.873  34.235  26.511  1.00  0.00     0.063 H 
ATOM     12  H   UNL     1     -48.839  32.088  24.688  1.00  0.00     0.065 H 
ATOM     13  H   UNL     1     -44.791  33.055  25.273  1.00  0.00     0.166 HD
ATOM     14  H   UNL     1     -44.996  35.201  27.051  1.00  0.00     0.065 H 
ENDROOT
BRANCH   1  15
ATOM     15  C   UNL     1     -46.579  36.896  28.522  1.00  0.00     0.068 C 
ATOM     16  H   UNL     1     -45.720  36.588  29.129  1.00  0.00     0.057 H 
ATOM     17  H   UNL     1     -47.376  37.200  29.209  1.00  0.00     0.057 H 
BRANCH  15  18
ATOM     18  N   UNL     1     -46.208  38.070  27.753  1.00  0.00    -0.247 N 
ATOM     19  C   UNL     1     -45.251  39.826  26.937  1.00  0.00     0.116 A 
ATOM     20  C   UNL     1     -45.175  38.935  27.984  1.00  0.00     0.054 A 
ATOM     21  N   UNL     1     -46.316  39.493  26.140  1.00  0.00    -0.130 NA
ATOM     22  H   UNL     1     -44.529  38.837  28.844  1.00  0.00     0.086 H 
ATOM     23  N   UNL     1     -46.886  38.407  26.640  1.00  0.00    -0.066 NA
BRANCH  19  24
ATOM     24  C   UNL     1     -44.412  40.981  26.689  1.00  0.00     0.042 A 
ATOM     25  C   UNL     1     -44.889  42.236  26.296  1.00  0.00     0.150 A 
ATOM     26  N   UNL     1     -44.077  43.309  26.065  1.00  0.00    -0.243 NA
ATOM     27  C   UNL     1     -42.747  43.130  26.245  1.00  0.00     0.047 A 
ATOM     28  C   UNL     1     -43.025  40.848  26.873  1.00  0.00    -0.029 A 
ATOM     29  C   UNL     1     -42.183  41.931  26.647  1.00  0.00     0.060 A 
ATOM     30  H   UNL     1     -42.134  44.007  26.053  1.00  0.00     0.086 H 
ATOM     31  H   UNL     1     -42.604  39.895  27.191  1.00  0.00     0.065 H 
ATOM     32  Cl  UNL     1     -40.487  41.782  26.858  1.00  0.00    -0.083 Cl
BRANCH  25  33
ATOM     33  C   UNL     1     -46.288  42.522  26.128  1.00  0.00     0.120 C 
ATOM     34  N   UNL     1     -47.416  42.784  26.006  1.00  0.00    -0.191 NA
ENDBRANCH  25  33
ENDBRANCH  19  24
ENDBRANCH  15  18
ENDBRANCH   1  15
BRANCH   6  35
ATOM     35  C   UNL     1     -46.156  31.156  23.760  1.00  0.00     0.036 C 
ATOM     36  H   UNL     1     -46.838  30.300  23.791  1.00  0.00     0.049 H 
ATOM     37  H   UNL     1     -45.175  30.814  24.113  1.00  0.00     0.049 H 
BRANCH  35  38
ATOM     38  N   UNL     1     -46.049  31.702  22.416  1.00  0.00    -0.311 NA
ATOM     39  H   UNL     1     -46.327  32.680  22.409  1.00  0.00     0.123 HD
BRANCH  38  40
ATOM     40  C   UNL     1     -46.793  30.940  21.415  1.00  0.00    -0.002 C 
ATOM     41  H   UNL     1     -46.889  31.575  20.526  1.00  0.00     0.043 H 
ATOM     42  H   UNL     1     -46.218  30.061  21.098  1.00  0.00     0.043 H 
BRANCH  40  43
ATOM     43  C   UNL     1     -48.175  30.523  21.900  1.00  0.00    -0.029 C 
ATOM     44  C   UNL     1     -49.405  31.114  21.157  1.00  0.00    -0.049 C 
ATOM     45  C   UNL     1     -48.666  29.133  21.409  1.00  0.00    -0.049 C 
ATOM     46  H   UNL     1     -48.273  30.607  22.993  1.00  0.00     0.032 H 
ATOM     47  C   UNL     1     -50.082  29.739  21.335  1.00  0.00    -0.053 C 
ATOM     48  H   UNL     1     -49.901  31.953  21.654  1.00  0.00     0.027 H 
ATOM     49  H   UNL     1     -49.220  31.379  20.110  1.00  0.00     0.027 H 
ATOM     50  H   UNL     1     -48.271  28.827  20.433  1.00  0.00     0.027 H 
ATOM     51  H   UNL     1     -48.541  28.309  22.116  1.00  0.00     0.027 H 
ATOM     52  H   UNL     1     -50.701  29.402  20.501  1.00  0.00     0.027 H 
ATOM     53  H   UNL     1     -50.652  29.646  22.267  1.00  0.00     0.027 H 
ENDBRANCH  40  43
ENDBRANCH  38  40
ENDBRANCH  35  38
ENDBRANCH   6  35
TORSDOF 8
ENDMDL
