MODEL 1
REMARK VINA RESULT:     -10.6      0.000      0.000
REMARK SMILES O=C(NCc1ccc(N2CCCC2=O)cc1)c1cc(=O)c2ccccc2o1
REMARK SMILES IDX 4 1 3 4 1 5 2 6 17 8 18 9 27 10 19 11 26 13 20 14 21 15
REMARK SMILES IDX 25 16 22 17 24 18 23 20 5 24 6 25 16 26 7 27 15 29 8 31 9 34
REMARK SMILES IDX 10 35 13 36 11 37 12 40 14 41
REMARK H PARENT 4 2 4 3 3 7 18 12 25 19 22 21 24 22 23 23 6 28 16 30 7 32
REMARK H PARENT 15 33 10 38 10 39 11 42 11 43 12 44 12 45
REMARK Flexibility Score: inf
ROOT
ATOM      1  C   UNL     1     -48.042  35.885  27.332  1.00  0.00     0.043 C 
ATOM      2  H   UNL     1     -49.000  36.351  27.072  1.00  0.00     0.054 H 
ATOM      3  H   UNL     1     -48.103  35.585  28.384  1.00  0.00     0.054 H 
ENDROOT
BRANCH   1   4
ATOM      4  N   UNL     1     -47.017  36.886  27.131  1.00  0.00    -0.345 N 
ATOM      5  O   UNL     1     -48.246  38.620  28.003  1.00  0.00    -0.266 OA
ATOM      6  C   UNL     1     -47.196  38.186  27.542  1.00  0.00     0.287 C 
ATOM      7  H   UNL     1     -46.080  36.546  26.963  1.00  0.00     0.164 HD
BRANCH   6   8
ATOM      8  C   UNL     1     -45.983  39.058  27.449  1.00  0.00     0.195 A 
ATOM      9  C   UNL     1     -45.807  39.832  26.370  1.00  0.00     0.035 A 
ATOM     10  O   UNL     1     -45.144  39.050  28.554  1.00  0.00    -0.451 OA
ATOM     11  C   UNL     1     -44.625  40.706  26.302  1.00  0.00     0.193 A 
ATOM     12  H   UNL     1     -46.489  39.876  25.531  1.00  0.00     0.071 H 
ATOM     13  C   UNL     1     -44.035  39.855  28.535  1.00  0.00     0.138 A 
ATOM     14  O   UNL     1     -44.418  41.400  25.316  1.00  0.00    -0.289 OA
ATOM     15  C   UNL     1     -43.724  40.688  27.462  1.00  0.00     0.065 A 
ATOM     16  C   UNL     1     -43.201  39.819  29.651  1.00  0.00    -0.019 A 
ATOM     17  C   UNL     1     -42.578  41.488  27.494  1.00  0.00    -0.047 A 
ATOM     18  C   UNL     1     -42.055  40.616  29.688  1.00  0.00    -0.059 A 
ATOM     19  H   UNL     1     -43.442  39.172  30.491  1.00  0.00     0.066 H 
ATOM     20  C   UNL     1     -41.744  41.450  28.613  1.00  0.00    -0.061 A 
ATOM     21  H   UNL     1     -42.338  42.139  26.656  1.00  0.00     0.063 H 
ATOM     22  H   UNL     1     -41.404  40.588  30.560  1.00  0.00     0.062 H 
ATOM     23  H   UNL     1     -40.851  42.071  28.645  1.00  0.00     0.062 H 
ENDBRANCH   6   8
ENDBRANCH   1   4
BRANCH   1  24
ATOM     24  C   UNL     1     -47.788  34.685  26.460  1.00  0.00    -0.029 A 
ATOM     25  C   UNL     1     -46.568  34.519  25.797  1.00  0.00    -0.055 A 
ATOM     26  C   UNL     1     -48.759  33.689  26.325  1.00  0.00    -0.055 A 
ATOM     27  C   UNL     1     -46.336  33.385  25.007  1.00  0.00    -0.038 A 
ATOM     28  H   UNL     1     -45.788  35.272  25.883  1.00  0.00     0.063 H 
ATOM     29  C   UNL     1     -48.521  32.557  25.535  1.00  0.00    -0.038 A 
ATOM     30  H   UNL     1     -49.715  33.783  26.840  1.00  0.00     0.063 H 
ATOM     31  C   UNL     1     -47.308  32.382  24.859  1.00  0.00     0.044 A 
ATOM     32  H   UNL     1     -45.376  33.322  24.504  1.00  0.00     0.064 H 
ATOM     33  H   UNL     1     -49.316  31.819  25.481  1.00  0.00     0.064 H 
BRANCH  31  34
ATOM     34  N   UNL     1     -47.052  31.235  24.056  1.00  0.00    -0.312 N 
ATOM     35  C   UNL     1     -46.213  31.278  22.881  1.00  0.00     0.026 C 
ATOM     36  C   UNL     1     -47.652  29.972  24.189  1.00  0.00     0.227 C 
ATOM     37  C   UNL     1     -45.922  29.825  22.575  1.00  0.00    -0.026 C 
ATOM     38  H   UNL     1     -45.280  31.819  23.066  1.00  0.00     0.050 H 
ATOM     39  H   UNL     1     -46.772  31.752  22.067  1.00  0.00     0.050 H 
ATOM     40  C   UNL     1     -47.174  29.113  23.042  1.00  0.00     0.029 C 
ATOM     41  O   UNL     1     -48.460  29.576  25.017  1.00  0.00    -0.275 OA
ATOM     42  H   UNL     1     -45.696  29.648  21.520  1.00  0.00     0.029 H 
ATOM     43  H   UNL     1     -45.064  29.483  23.166  1.00  0.00     0.029 H 
ATOM     44  H   UNL     1     -47.946  29.099  22.266  1.00  0.00     0.037 H 
ATOM     45  H   UNL     1     -46.960  28.095  23.378  1.00  0.00     0.037 H 
ENDBRANCH  31  34
ENDBRANCH   1  24
TORSDOF 4
ENDMDL
MODEL 2
REMARK VINA RESULT:     -10.1      1.306      2.410
REMARK SMILES O=C(NCc1ccc(N2CCCC2=O)cc1)c1cc(=O)c2ccccc2o1
REMARK SMILES IDX 4 1 3 4 1 5 2 6 17 8 18 9 27 10 19 11 26 13 20 14 21 15
REMARK SMILES IDX 25 16 22 17 24 18 23 20 5 24 6 25 16 26 7 27 15 29 8 31 9 34
REMARK SMILES IDX 10 35 13 36 11 37 12 40 14 41
REMARK H PARENT 4 2 4 3 3 7 18 12 25 19 22 21 24 22 23 23 6 28 16 30 7 32
REMARK H PARENT 15 33 10 38 10 39 11 42 11 43 12 44 12 45
REMARK Flexibility Score: inf
ROOT
ATOM      1  C   UNL     1     -48.132  35.651  27.503  1.00  0.00     0.043 C 
ATOM      2  H   UNL     1     -49.027  36.185  27.165  1.00  0.00     0.054 H 
ATOM      3  H   UNL     1     -48.343  35.269  28.508  1.00  0.00     0.054 H 
ENDROOT
BRANCH   1   4
ATOM      4  N   UNL     1     -47.049  36.609  27.524  1.00  0.00    -0.345 N 
ATOM      5  O   UNL     1     -48.403  38.445  27.796  1.00  0.00    -0.266 OA
ATOM      6  C   UNL     1     -47.283  37.949  27.724  1.00  0.00     0.287 C 
ATOM      7  H   UNL     1     -46.122  36.241  27.686  1.00  0.00     0.164 HD
BRANCH   6   8
ATOM      8  C   UNL     1     -46.060  38.790  27.917  1.00  0.00     0.195 A 
ATOM      9  C   UNL     1     -45.292  38.601  29.000  1.00  0.00     0.035 A 
ATOM     10  O   UNL     1     -45.766  39.677  26.893  1.00  0.00    -0.451 OA
ATOM     11  C   UNL     1     -44.077  39.413  29.165  1.00  0.00     0.193 A 
ATOM     12  H   UNL     1     -45.495  37.872  29.773  1.00  0.00     0.071 H 
ATOM     13  C   UNL     1     -44.638  40.448  27.004  1.00  0.00     0.138 A 
ATOM     14  O   UNL     1     -43.374  39.289  30.158  1.00  0.00    -0.289 OA
ATOM     15  C   UNL     1     -43.771  40.368  28.091  1.00  0.00     0.065 A 
ATOM     16  C   UNL     1     -44.372  41.343  25.968  1.00  0.00    -0.019 A 
ATOM     17  C   UNL     1     -42.634  41.180  28.154  1.00  0.00    -0.047 A 
ATOM     18  C   UNL     1     -43.239  42.156  26.026  1.00  0.00    -0.059 A 
ATOM     19  H   UNL     1     -45.045  41.407  25.117  1.00  0.00     0.066 H 
ATOM     20  C   UNL     1     -42.370  42.075  27.116  1.00  0.00    -0.061 A 
ATOM     21  H   UNL     1     -41.958  41.114  29.004  1.00  0.00     0.063 H 
ATOM     22  H   UNL     1     -43.031  42.854  25.217  1.00  0.00     0.062 H 
ATOM     23  H   UNL     1     -41.488  42.709  27.158  1.00  0.00     0.062 H 
ENDBRANCH   6   8
ENDBRANCH   1   4
BRANCH   1  24
ATOM     24  C   UNL     1     -47.814  34.514  26.569  1.00  0.00    -0.029 A 
ATOM     25  C   UNL     1     -48.762  33.526  26.284  1.00  0.00    -0.055 A 
ATOM     26  C   UNL     1     -46.570  34.444  25.935  1.00  0.00    -0.055 A 
ATOM     27  C   UNL     1     -48.462  32.486  25.394  1.00  0.00    -0.038 A 
ATOM     28  H   UNL     1     -49.742  33.551  26.756  1.00  0.00     0.063 H 
ATOM     29  C   UNL     1     -46.276  33.403  25.045  1.00  0.00    -0.038 A 
ATOM     30  H   UNL     1     -45.815  35.206  26.127  1.00  0.00     0.063 H 
ATOM     31  C   UNL     1     -47.212  32.403  24.758  1.00  0.00     0.044 A 
ATOM     32  H   UNL     1     -49.232  31.740  25.228  1.00  0.00     0.064 H 
ATOM     33  H   UNL     1     -45.294  33.415  24.583  1.00  0.00     0.064 H 
BRANCH  31  34
ATOM     34  N   UNL     1     -46.927  31.342  23.854  1.00  0.00    -0.312 N 
ATOM     35  C   UNL     1     -47.240  29.963  24.147  1.00  0.00     0.026 C 
ATOM     36  C   UNL     1     -46.207  31.441  22.650  1.00  0.00     0.227 C 
ATOM     37  C   UNL     1     -47.123  29.260  22.811  1.00  0.00    -0.026 C 
ATOM     38  H   UNL     1     -48.253  29.851  24.545  1.00  0.00     0.050 H 
ATOM     39  H   UNL     1     -46.505  29.580  24.863  1.00  0.00     0.050 H 
ATOM     40  C   UNL     1     -46.042  30.045  22.098  1.00  0.00     0.029 C 
ATOM     41  O   UNL     1     -45.725  32.425  22.110  1.00  0.00    -0.275 OA
ATOM     42  H   UNL     1     -46.888  28.197  22.908  1.00  0.00     0.029 H 
ATOM     43  H   UNL     1     -48.066  29.349  22.259  1.00  0.00     0.029 H 
ATOM     44  H   UNL     1     -45.042  29.681  22.353  1.00  0.00     0.037 H 
ATOM     45  H   UNL     1     -46.182  30.034  21.014  1.00  0.00     0.037 H 
ENDBRANCH  31  34
ENDBRANCH   1  24
TORSDOF 4
ENDMDL
MODEL 3
REMARK VINA RESULT:      -9.8      2.124      9.554
REMARK SMILES O=C(NCc1ccc(N2CCCC2=O)cc1)c1cc(=O)c2ccccc2o1
REMARK SMILES IDX 4 1 3 4 1 5 2 6 17 8 18 9 27 10 19 11 26 13 20 14 21 15
REMARK SMILES IDX 25 16 22 17 24 18 23 20 5 24 6 25 16 26 7 27 15 29 8 31 9 34
REMARK SMILES IDX 10 35 13 36 11 37 12 40 14 41
REMARK H PARENT 4 2 4 3 3 7 18 12 25 19 22 21 24 22 23 23 6 28 16 30 7 32
REMARK H PARENT 15 33 10 38 10 39 11 42 11 43 12 44 12 45
REMARK Flexibility Score: inf
ROOT
ATOM      1  C   UNL     1     -48.195  36.537  27.848  1.00  0.00     0.043 C 
ATOM      2  H   UNL     1     -48.290  36.036  28.818  1.00  0.00     0.054 H 
ATOM      3  H   UNL     1     -49.139  37.059  27.659  1.00  0.00     0.054 H 
ENDROOT
BRANCH   1   4
ATOM      4  N   UNL     1     -47.960  35.506  26.860  1.00  0.00    -0.345 N 
ATOM      5  O   UNL     1     -46.689  34.182  28.242  1.00  0.00    -0.266 OA
ATOM      6  C   UNL     1     -47.253  34.368  27.169  1.00  0.00     0.287 C 
ATOM      7  H   UNL     1     -48.568  35.506  26.053  1.00  0.00     0.164 HD
BRANCH   6   8
ATOM      8  C   UNL     1     -47.258  33.308  26.113  1.00  0.00     0.195 A 
ATOM      9  C   UNL     1     -46.516  33.471  25.008  1.00  0.00     0.035 A 
ATOM     10  O   UNL     1     -47.997  32.169  26.399  1.00  0.00    -0.451 OA
ATOM     11  C   UNL     1     -46.507  32.409  23.990  1.00  0.00     0.193 A 
ATOM     12  H   UNL     1     -45.899  34.337  24.809  1.00  0.00     0.071 H 
ATOM     13  C   UNL     1     -48.010  31.153  25.480  1.00  0.00     0.138 A 
ATOM     14  O   UNL     1     -45.868  32.543  22.955  1.00  0.00    -0.289 OA
ATOM     15  C   UNL     1     -47.303  31.209  24.281  1.00  0.00     0.065 A 
ATOM     16  C   UNL     1     -48.771  30.026  25.786  1.00  0.00    -0.019 A 
ATOM     17  C   UNL     1     -47.352  30.143  23.377  1.00  0.00    -0.047 A 
ATOM     18  C   UNL     1     -48.824  28.958  24.886  1.00  0.00    -0.059 A 
ATOM     19  H   UNL     1     -49.322  29.977  26.721  1.00  0.00     0.066 H 
ATOM     20  C   UNL     1     -48.116  29.016  23.684  1.00  0.00    -0.061 A 
ATOM     21  H   UNL     1     -46.798  30.189  22.442  1.00  0.00     0.063 H 
ATOM     22  H   UNL     1     -49.418  28.078  25.125  1.00  0.00     0.062 H 
ATOM     23  H   UNL     1     -48.158  28.183  22.987  1.00  0.00     0.062 H 
ENDBRANCH   6   8
ENDBRANCH   1   4
BRANCH   1  24
ATOM     24  C   UNL     1     -47.052  37.516  27.873  1.00  0.00    -0.029 A 
ATOM     25  C   UNL     1     -46.819  38.382  26.801  1.00  0.00    -0.055 A 
ATOM     26  C   UNL     1     -46.219  37.604  28.992  1.00  0.00    -0.055 A 
ATOM     27  C   UNL     1     -45.766  39.306  26.847  1.00  0.00    -0.038 A 
ATOM     28  H   UNL     1     -47.449  38.344  25.916  1.00  0.00     0.063 H 
ATOM     29  C   UNL     1     -45.169  38.530  29.034  1.00  0.00    -0.038 A 
ATOM     30  H   UNL     1     -46.384  36.952  29.850  1.00  0.00     0.063 H 
ATOM     31  C   UNL     1     -44.919  39.397  27.964  1.00  0.00     0.044 A 
ATOM     32  H   UNL     1     -45.625  39.938  25.976  1.00  0.00     0.064 H 
ATOM     33  H   UNL     1     -44.567  38.550  29.937  1.00  0.00     0.064 H 
BRANCH  31  34
ATOM     34  N   UNL     1     -43.857  40.344  27.995  1.00  0.00    -0.312 N 
ATOM     35  C   UNL     1     -43.492  41.143  26.848  1.00  0.00     0.026 C 
ATOM     36  C   UNL     1     -42.950  40.547  29.048  1.00  0.00     0.227 C 
ATOM     37  C   UNL     1     -42.610  42.233  27.416  1.00  0.00    -0.026 C 
ATOM     38  H   UNL     1     -44.368  41.581  26.361  1.00  0.00     0.050 H 
ATOM     39  H   UNL     1     -42.939  40.512  26.142  1.00  0.00     0.050 H 
ATOM     40  C   UNL     1     -41.924  41.554  28.583  1.00  0.00     0.029 C 
ATOM     41  O   UNL     1     -42.898  40.013  30.146  1.00  0.00    -0.275 OA
ATOM     42  H   UNL     1     -41.908  42.640  26.683  1.00  0.00     0.029 H 
ATOM     43  H   UNL     1     -43.229  43.060  27.785  1.00  0.00     0.029 H 
ATOM     44  H   UNL     1     -41.022  41.019  28.268  1.00  0.00     0.037 H 
ATOM     45  H   UNL     1     -41.682  42.263  29.379  1.00  0.00     0.037 H 
ENDBRANCH  31  34
ENDBRANCH   1  24
TORSDOF 4
ENDMDL
MODEL 4
REMARK VINA RESULT:      -9.7      2.661      4.397
REMARK SMILES O=C(NCc1ccc(N2CCCC2=O)cc1)c1cc(=O)c2ccccc2o1
REMARK SMILES IDX 4 1 3 4 1 5 2 6 17 8 18 9 27 10 19 11 26 13 20 14 21 15
REMARK SMILES IDX 25 16 22 17 24 18 23 20 5 24 6 25 16 26 7 27 15 29 8 31 9 34
REMARK SMILES IDX 10 35 13 36 11 37 12 40 14 41
REMARK H PARENT 4 2 4 3 3 7 18 12 25 19 22 21 24 22 23 23 6 28 16 30 7 32
REMARK H PARENT 15 33 10 38 10 39 11 42 11 43 12 44 12 45
REMARK Flexibility Score: inf
ROOT
ATOM      1  C   UNL     1     -44.987  38.497  29.156  1.00  0.00     0.043 C 
ATOM      2  H   UNL     1     -45.677  38.789  29.956  1.00  0.00     0.054 H 
ATOM      3  H   UNL     1     -44.044  38.206  29.631  1.00  0.00     0.054 H 
ENDROOT
BRANCH   1   4
ATOM      4  N   UNL     1     -44.810  39.654  28.306  1.00  0.00    -0.345 N 
ATOM      5  O   UNL     1     -42.922  40.409  29.375  1.00  0.00    -0.266 OA
ATOM      6  C   UNL     1     -43.737  40.500  28.464  1.00  0.00     0.287 C 
ATOM      7  H   UNL     1     -45.313  39.653  27.430  1.00  0.00     0.164 HD
BRANCH   6   8
ATOM      8  C   UNL     1     -43.578  41.535  27.395  1.00  0.00     0.195 A 
ATOM      9  C   UNL     1     -42.353  41.830  26.937  1.00  0.00     0.035 A 
ATOM     10  O   UNL     1     -44.753  42.074  26.893  1.00  0.00    -0.451 OA
ATOM     11  C   UNL     1     -42.212  42.828  25.866  1.00  0.00     0.193 A 
ATOM     12  H   UNL     1     -41.441  41.370  27.293  1.00  0.00     0.071 H 
ATOM     13  C   UNL     1     -44.666  43.004  25.889  1.00  0.00     0.138 A 
ATOM     14  O   UNL     1     -41.105  43.144  25.450  1.00  0.00    -0.289 OA
ATOM     15  C   UNL     1     -43.452  43.416  25.344  1.00  0.00     0.065 A 
ATOM     16  C   UNL     1     -45.861  43.541  25.412  1.00  0.00    -0.019 A 
ATOM     17  C   UNL     1     -43.421  44.369  24.321  1.00  0.00    -0.047 A 
ATOM     18  C   UNL     1     -45.835  44.494  24.391  1.00  0.00    -0.059 A 
ATOM     19  H   UNL     1     -46.809  43.220  25.834  1.00  0.00     0.066 H 
ATOM     20  C   UNL     1     -44.618  44.907  23.845  1.00  0.00    -0.061 A 
ATOM     21  H   UNL     1     -42.472  44.688  23.896  1.00  0.00     0.063 H 
ATOM     22  H   UNL     1     -46.767  44.914  24.018  1.00  0.00     0.062 H 
ATOM     23  H   UNL     1     -44.601  45.648  23.050  1.00  0.00     0.062 H 
ENDBRANCH   6   8
ENDBRANCH   1   4
BRANCH   1  24
ATOM     24  C   UNL     1     -45.554  37.345  28.369  1.00  0.00    -0.029 A 
ATOM     25  C   UNL     1     -46.363  37.563  27.250  1.00  0.00    -0.055 A 
ATOM     26  C   UNL     1     -45.249  36.027  28.723  1.00  0.00    -0.055 A 
ATOM     27  C   UNL     1     -46.864  36.482  26.513  1.00  0.00    -0.038 A 
ATOM     28  H   UNL     1     -46.617  38.574  26.943  1.00  0.00     0.063 H 
ATOM     29  C   UNL     1     -45.752  34.951  27.982  1.00  0.00    -0.038 A 
ATOM     30  H   UNL     1     -44.610  35.826  29.583  1.00  0.00     0.063 H 
ATOM     31  C   UNL     1     -46.570  35.154  26.865  1.00  0.00     0.044 A 
ATOM     32  H   UNL     1     -47.501  36.715  25.665  1.00  0.00     0.064 H 
ATOM     33  H   UNL     1     -45.469  33.955  28.308  1.00  0.00     0.064 H 
BRANCH  31  34
ATOM     34  N   UNL     1     -47.085  34.070  26.101  1.00  0.00    -0.312 N 
ATOM     35  C   UNL     1     -46.346  33.456  25.022  1.00  0.00     0.026 C 
ATOM     36  C   UNL     1     -48.383  33.537  26.177  1.00  0.00     0.227 C 
ATOM     37  C   UNL     1     -47.078  32.158  24.757  1.00  0.00    -0.026 C 
ATOM     38  H   UNL     1     -45.308  33.254  25.301  1.00  0.00     0.050 H 
ATOM     39  H   UNL     1     -46.384  34.118  24.149  1.00  0.00     0.050 H 
ATOM     40  C   UNL     1     -48.516  32.493  25.093  1.00  0.00     0.029 C 
ATOM     41  O   UNL     1     -49.307  33.840  26.917  1.00  0.00    -0.275 OA
ATOM     42  H   UNL     1     -46.949  31.796  23.734  1.00  0.00     0.029 H 
ATOM     43  H   UNL     1     -46.714  31.379  25.439  1.00  0.00     0.029 H 
ATOM     44  H   UNL     1     -49.039  32.936  24.240  1.00  0.00     0.037 H 
ATOM     45  H   UNL     1     -49.061  31.619  25.456  1.00  0.00     0.037 H 
ENDBRANCH  31  34
ENDBRANCH   1  24
TORSDOF 4
ENDMDL
MODEL 5
REMARK VINA RESULT:      -9.6      2.121      3.369
REMARK SMILES O=C(NCc1ccc(N2CCCC2=O)cc1)c1cc(=O)c2ccccc2o1
REMARK SMILES IDX 4 1 3 4 1 5 2 6 17 8 18 9 27 10 19 11 26 13 20 14 21 15
REMARK SMILES IDX 25 16 22 17 24 18 23 20 5 24 6 25 16 26 7 27 15 29 8 31 9 34
REMARK SMILES IDX 10 35 13 36 11 37 12 40 14 41
REMARK H PARENT 4 2 4 3 3 7 18 12 25 19 22 21 24 22 23 23 6 28 16 30 7 32
REMARK H PARENT 15 33 10 38 10 39 11 42 11 43 12 44 12 45
REMARK Flexibility Score: inf
ROOT
ATOM      1  C   UNL     1     -46.229  37.400  29.186  1.00  0.00     0.043 C 
ATOM      2  H   UNL     1     -47.113  37.972  29.487  1.00  0.00     0.054 H 
ATOM      3  H   UNL     1     -45.762  37.019  30.101  1.00  0.00     0.054 H 
ENDROOT
BRANCH   1   4
ATOM      4  N   UNL     1     -45.349  38.315  28.492  1.00  0.00    -0.345 N 
ATOM      5  O   UNL     1     -46.945  39.936  28.174  1.00  0.00    -0.266 OA
ATOM      6  C   UNL     1     -45.784  39.554  28.083  1.00  0.00     0.287 C 
ATOM      7  H   UNL     1     -44.357  38.145  28.583  1.00  0.00     0.164 HD
BRANCH   6   8
ATOM      8  C   UNL     1     -44.718  40.463  27.558  1.00  0.00     0.195 A 
ATOM      9  C   UNL     1     -43.561  40.580  28.225  1.00  0.00     0.035 A 
ATOM     10  O   UNL     1     -44.988  41.078  26.345  1.00  0.00    -0.451 OA
ATOM     11  C   UNL     1     -42.509  41.455  27.683  1.00  0.00     0.193 A 
ATOM     12  H   UNL     1     -43.330  40.059  29.144  1.00  0.00     0.071 H 
ATOM     13  C   UNL     1     -44.032  41.897  25.802  1.00  0.00     0.138 A 
ATOM     14  O   UNL     1     -41.456  41.610  28.286  1.00  0.00    -0.289 OA
ATOM     15  C   UNL     1     -42.798  42.124  26.408  1.00  0.00     0.065 A 
ATOM     16  C   UNL     1     -44.334  42.514  24.589  1.00  0.00    -0.019 A 
ATOM     17  C   UNL     1     -41.859  42.970  25.811  1.00  0.00    -0.047 A 
ATOM     18  C   UNL     1     -43.400  43.361  23.988  1.00  0.00    -0.059 A 
ATOM     19  H   UNL     1     -45.295  42.338  24.112  1.00  0.00     0.066 H 
ATOM     20  C   UNL     1     -42.164  43.588  24.597  1.00  0.00    -0.061 A 
ATOM     21  H   UNL     1     -40.896  43.144  26.286  1.00  0.00     0.063 H 
ATOM     22  H   UNL     1     -43.635  43.843  23.042  1.00  0.00     0.062 H 
ATOM     23  H   UNL     1     -41.438  44.247  24.127  1.00  0.00     0.062 H 
ENDBRANCH   6   8
ENDBRANCH   1   4
BRANCH   1  24
ATOM     24  C   UNL     1     -46.622  36.259  28.286  1.00  0.00    -0.029 A 
ATOM     25  C   UNL     1     -45.840  35.104  28.200  1.00  0.00    -0.055 A 
ATOM     26  C   UNL     1     -47.805  36.318  27.544  1.00  0.00    -0.055 A 
ATOM     27  C   UNL     1     -46.230  34.039  27.377  1.00  0.00    -0.038 A 
ATOM     28  H   UNL     1     -44.915  35.022  28.767  1.00  0.00     0.063 H 
ATOM     29  C   UNL     1     -48.190  35.250  26.723  1.00  0.00    -0.038 A 
ATOM     30  H   UNL     1     -48.443  37.200  27.600  1.00  0.00     0.063 H 
ATOM     31  C   UNL     1     -47.413  34.092  26.621  1.00  0.00     0.044 A 
ATOM     32  H   UNL     1     -45.571  33.177  27.338  1.00  0.00     0.064 H 
ATOM     33  H   UNL     1     -49.125  35.360  26.181  1.00  0.00     0.064 H 
BRANCH  31  34
ATOM     34  N   UNL     1     -47.794  32.999  25.794  1.00  0.00    -0.312 N 
ATOM     35  C   UNL     1     -48.870  32.099  26.139  1.00  0.00     0.026 C 
ATOM     36  C   UNL     1     -47.132  32.557  24.635  1.00  0.00     0.227 C 
ATOM     37  C   UNL     1     -49.166  31.358  24.852  1.00  0.00    -0.026 C 
ATOM     38  H   UNL     1     -49.760  32.638  26.477  1.00  0.00     0.050 H 
ATOM     39  H   UNL     1     -48.520  31.414  26.920  1.00  0.00     0.050 H 
ATOM     40  C   UNL     1     -47.816  31.293  24.169  1.00  0.00     0.029 C 
ATOM     41  O   UNL     1     -46.150  33.020  24.075  1.00  0.00    -0.275 OA
ATOM     42  H   UNL     1     -49.609  30.373  25.020  1.00  0.00     0.029 H 
ATOM     43  H   UNL     1     -49.861  31.941  24.237  1.00  0.00     0.029 H 
ATOM     44  H   UNL     1     -47.232  30.432  24.505  1.00  0.00     0.037 H 
ATOM     45  H   UNL     1     -47.914  31.280  23.080  1.00  0.00     0.037 H 
ENDBRANCH  31  34
ENDBRANCH   1  24
TORSDOF 4
ENDMDL
MODEL 6
REMARK VINA RESULT:      -9.4      2.365     10.030
REMARK SMILES O=C(NCc1ccc(N2CCCC2=O)cc1)c1cc(=O)c2ccccc2o1
REMARK SMILES IDX 4 1 3 4 1 5 2 6 17 8 18 9 27 10 19 11 26 13 20 14 21 15
REMARK SMILES IDX 25 16 22 17 24 18 23 20 5 24 6 25 16 26 7 27 15 29 8 31 9 34
REMARK SMILES IDX 10 35 13 36 11 37 12 40 14 41
REMARK H PARENT 4 2 4 3 3 7 18 12 25 19 22 21 24 22 23 23 6 28 16 30 7 32
REMARK H PARENT 15 33 10 38 10 39 11 42 11 43 12 44 12 45
REMARK Flexibility Score: inf
ROOT
ATOM      1  C   UNL     1     -49.560  33.705  26.089  1.00  0.00     0.043 C 
ATOM      2  H   UNL     1     -50.369  33.513  26.803  1.00  0.00     0.054 H 
ATOM      3  H   UNL     1     -50.019  34.105  25.178  1.00  0.00     0.054 H 
ENDROOT
BRANCH   1   4
ATOM      4  N   UNL     1     -48.911  32.437  25.833  1.00  0.00    -0.345 N 
ATOM      5  O   UNL     1     -50.396  31.768  24.212  1.00  0.00    -0.266 OA
ATOM      6  C   UNL     1     -49.369  31.583  24.857  1.00  0.00     0.287 C 
ATOM      7  H   UNL     1     -47.964  32.338  26.171  1.00  0.00     0.164 HD
BRANCH   6   8
ATOM      8  C   UNL     1     -48.488  30.408  24.573  1.00  0.00     0.195 A 
ATOM      9  C   UNL     1     -47.529  30.511  23.642  1.00  0.00     0.035 A 
ATOM     10  O   UNL     1     -48.691  29.291  25.369  1.00  0.00    -0.451 OA
ATOM     11  C   UNL     1     -46.650  29.358  23.391  1.00  0.00     0.193 A 
ATOM     12  H   UNL     1     -47.337  31.400  23.057  1.00  0.00     0.071 H 
ATOM     13  C   UNL     1     -47.888  28.197  25.173  1.00  0.00     0.138 A 
ATOM     14  O   UNL     1     -45.787  29.408  22.525  1.00  0.00    -0.289 OA
ATOM     15  C   UNL     1     -46.872  28.166  24.220  1.00  0.00     0.065 A 
ATOM     16  C   UNL     1     -48.121  27.082  25.977  1.00  0.00    -0.019 A 
ATOM     17  C   UNL     1     -46.084  27.022  24.060  1.00  0.00    -0.047 A 
ATOM     18  C   UNL     1     -47.337  25.937  25.821  1.00  0.00    -0.059 A 
ATOM     19  H   UNL     1     -48.912  27.103  26.722  1.00  0.00     0.066 H 
ATOM     20  C   UNL     1     -46.319  25.906  24.865  1.00  0.00    -0.061 A 
ATOM     21  H   UNL     1     -45.290  27.001  23.316  1.00  0.00     0.063 H 
ATOM     22  H   UNL     1     -47.519  25.067  26.449  1.00  0.00     0.062 H 
ATOM     23  H   UNL     1     -45.710  25.014  24.747  1.00  0.00     0.062 H 
ENDBRANCH   6   8
ENDBRANCH   1   4
BRANCH   1  24
ATOM     24  C   UNL     1     -48.580  34.695  26.659  1.00  0.00    -0.029 A 
ATOM     25  C   UNL     1     -47.206  34.558  26.443  1.00  0.00    -0.055 A 
ATOM     26  C   UNL     1     -49.032  35.798  27.390  1.00  0.00    -0.055 A 
ATOM     27  C   UNL     1     -46.306  35.500  26.960  1.00  0.00    -0.038 A 
ATOM     28  H   UNL     1     -46.819  33.715  25.876  1.00  0.00     0.063 H 
ATOM     29  C   UNL     1     -48.128  36.737  27.903  1.00  0.00    -0.038 A 
ATOM     30  H   UNL     1     -50.098  35.939  27.564  1.00  0.00     0.063 H 
ATOM     31  C   UNL     1     -46.749  36.608  27.701  1.00  0.00     0.044 A 
ATOM     32  H   UNL     1     -45.251  35.329  26.774  1.00  0.00     0.064 H 
ATOM     33  H   UNL     1     -48.548  37.573  28.453  1.00  0.00     0.064 H 
BRANCH  31  34
ATOM     34  N   UNL     1     -45.821  37.556  28.214  1.00  0.00    -0.312 N 
ATOM     35  C   UNL     1     -45.164  38.535  27.379  1.00  0.00     0.026 C 
ATOM     36  C   UNL     1     -45.314  37.604  29.524  1.00  0.00     0.227 C 
ATOM     37  C   UNL     1     -44.587  39.535  28.357  1.00  0.00    -0.026 C 
ATOM     38  H   UNL     1     -45.866  39.030  26.702  1.00  0.00     0.050 H 
ATOM     39  H   UNL     1     -44.373  38.035  26.808  1.00  0.00     0.050 H 
ATOM     40  C   UNL     1     -44.265  38.690  29.571  1.00  0.00     0.029 C 
ATOM     41  O   UNL     1     -45.579  36.901  30.488  1.00  0.00    -0.275 OA
ATOM     42  H   UNL     1     -43.717  40.066  27.961  1.00  0.00     0.029 H 
ATOM     43  H   UNL     1     -45.347  40.281  28.620  1.00  0.00     0.029 H 
ATOM     44  H   UNL     1     -43.276  38.228  29.494  1.00  0.00     0.037 H 
ATOM     45  H   UNL     1     -44.340  39.266  30.497  1.00  0.00     0.037 H 
ENDBRANCH  31  34
ENDBRANCH   1  24
TORSDOF 4
ENDMDL
MODEL 7
REMARK VINA RESULT:      -9.2      2.321      9.708
REMARK SMILES O=C(NCc1ccc(N2CCCC2=O)cc1)c1cc(=O)c2ccccc2o1
REMARK SMILES IDX 4 1 3 4 1 5 2 6 17 8 18 9 27 10 19 11 26 13 20 14 21 15
REMARK SMILES IDX 25 16 22 17 24 18 23 20 5 24 6 25 16 26 7 27 15 29 8 31 9 34
REMARK SMILES IDX 10 35 13 36 11 37 12 40 14 41
REMARK H PARENT 4 2 4 3 3 7 18 12 25 19 22 21 24 22 23 23 6 28 16 30 7 32
REMARK H PARENT 15 33 10 38 10 39 11 42 11 43 12 44 12 45
REMARK Flexibility Score: inf
ROOT
ATOM      1  C   UNL     1     -46.656  35.599  28.340  1.00  0.00     0.043 C 
ATOM      2  H   UNL     1     -45.817  35.111  28.848  1.00  0.00     0.054 H 
ATOM      3  H   UNL     1     -47.485  35.645  29.054  1.00  0.00     0.054 H 
ENDROOT
BRANCH   1   4
ATOM      4  N   UNL     1     -46.995  34.779  27.197  1.00  0.00    -0.345 N 
ATOM      5  O   UNL     1     -46.068  32.854  28.042  1.00  0.00    -0.266 OA
ATOM      6  C   UNL     1     -46.708  33.434  27.172  1.00  0.00     0.287 C 
ATOM      7  H   UNL     1     -47.696  35.147  26.569  1.00  0.00     0.164 HD
BRANCH   6   8
ATOM      8  C   UNL     1     -47.290  32.680  26.018  1.00  0.00     0.195 A 
ATOM      9  C   UNL     1     -48.620  32.637  25.859  1.00  0.00     0.035 A 
ATOM     10  O   UNL     1     -46.376  32.125  25.134  1.00  0.00    -0.451 OA
ATOM     11  C   UNL     1     -49.179  31.917  24.704  1.00  0.00     0.193 A 
ATOM     12  H   UNL     1     -49.330  33.115  26.520  1.00  0.00     0.071 H 
ATOM     13  C   UNL     1     -46.855  31.451  24.041  1.00  0.00     0.138 A 
ATOM     14  O   UNL     1     -50.389  31.831  24.549  1.00  0.00    -0.289 OA
ATOM     15  C   UNL     1     -48.216  31.312  23.774  1.00  0.00     0.065 A 
ATOM     16  C   UNL     1     -45.917  30.891  23.175  1.00  0.00    -0.019 A 
ATOM     17  C   UNL     1     -48.650  30.612  22.645  1.00  0.00    -0.047 A 
ATOM     18  C   UNL     1     -46.345  30.189  22.045  1.00  0.00    -0.059 A 
ATOM     19  H   UNL     1     -44.855  30.999  23.378  1.00  0.00     0.066 H 
ATOM     20  C   UNL     1     -47.709  30.051  21.780  1.00  0.00    -0.061 A 
ATOM     21  H   UNL     1     -49.713  30.506  22.439  1.00  0.00     0.063 H 
ATOM     22  H   UNL     1     -45.613  29.753  21.369  1.00  0.00     0.062 H 
ATOM     23  H   UNL     1     -48.040  29.506  20.899  1.00  0.00     0.062 H 
ENDBRANCH   6   8
ENDBRANCH   1   4
BRANCH   1  24
ATOM     24  C   UNL     1     -46.268  36.986  27.900  1.00  0.00    -0.029 A 
ATOM     25  C   UNL     1     -46.866  37.584  26.787  1.00  0.00    -0.055 A 
ATOM     26  C   UNL     1     -45.324  37.720  28.623  1.00  0.00    -0.055 A 
ATOM     27  C   UNL     1     -46.513  38.885  26.402  1.00  0.00    -0.038 A 
ATOM     28  H   UNL     1     -47.608  37.044  26.204  1.00  0.00     0.063 H 
ATOM     29  C   UNL     1     -44.976  39.020  28.234  1.00  0.00    -0.038 A 
ATOM     30  H   UNL     1     -44.850  37.286  29.503  1.00  0.00     0.063 H 
ATOM     31  C   UNL     1     -45.559  39.628  27.118  1.00  0.00     0.044 A 
ATOM     32  H   UNL     1     -46.999  39.287  25.519  1.00  0.00     0.064 H 
ATOM     33  H   UNL     1     -44.241  39.535  28.846  1.00  0.00     0.064 H 
BRANCH  31  34
ATOM     34  N   UNL     1     -45.217  40.949  26.714  1.00  0.00    -0.312 N 
ATOM     35  C   UNL     1     -46.170  41.851  26.108  1.00  0.00     0.026 C 
ATOM     36  C   UNL     1     -43.930  41.514  26.712  1.00  0.00     0.227 C 
ATOM     37  C   UNL     1     -45.506  43.208  26.192  1.00  0.00    -0.026 C 
ATOM     38  H   UNL     1     -47.121  41.861  26.648  1.00  0.00     0.050 H 
ATOM     39  H   UNL     1     -46.326  41.549  25.067  1.00  0.00     0.050 H 
ATOM     40  C   UNL     1     -44.031  42.883  26.080  1.00  0.00     0.029 C 
ATOM     41  O   UNL     1     -42.869  41.036  27.083  1.00  0.00    -0.275 OA
ATOM     42  H   UNL     1     -45.852  43.901  25.420  1.00  0.00     0.029 H 
ATOM     43  H   UNL     1     -45.708  43.663  27.170  1.00  0.00     0.029 H 
ATOM     44  H   UNL     1     -43.709  42.814  25.036  1.00  0.00     0.037 H 
ATOM     45  H   UNL     1     -43.415  43.608  26.617  1.00  0.00     0.037 H 
ENDBRANCH  31  34
ENDBRANCH   1  24
TORSDOF 4
ENDMDL
