MODEL 1
REMARK VINA RESULT:     -10.2      0.000      0.000
REMARK SMILES O=C(NCc1ccc2cc(CNCC3CCC3)[nH]c2c1)c1cnc2[nH]ccc2c1
REMARK SMILES IDX 5 1 6 2 7 3 8 4 9 5 10 6 18 7 19 8 20 9 4 15 3 18 1 19 2 20
REMARK SMILES IDX 21 22 22 23 29 24 23 25 28 27 24 29 27 30 25 31 26 32 11 36
REMARK SMILES IDX 12 39 13 41 14 44 15 45 17 46 16 48
REMARK H PARENT 6 10 7 11 9 12 18 13 20 14 4 16 4 17 3 21 22 26 29 28 27 33
REMARK H PARENT 25 34 26 35 11 37 11 38 12 40 13 42 13 43 14 47 15 49 15 50
REMARK H PARENT 17 51 17 52 16 53 16 54
REMARK Flexibility Score: inf
ROOT
ATOM      1  C   UNL     1     -48.014  33.739  26.027  1.00  0.00    -0.027 A 
ATOM      2  C   UNL     1     -46.721  33.877  25.506  1.00  0.00    -0.057 A 
ATOM      3  C   UNL     1     -46.177  32.909  24.651  1.00  0.00    -0.052 A 
ATOM      4  C   UNL     1     -46.942  31.776  24.317  1.00  0.00    -0.000 A 
ATOM      5  C   UNL     1     -46.714  30.634  23.500  1.00  0.00    -0.032 A 
ATOM      6  C   UNL     1     -47.842  29.840  23.550  1.00  0.00     0.030 A 
ATOM      7  N   UNL     1     -48.742  30.470  24.377  1.00  0.00    -0.357 N 
ATOM      8  C   UNL     1     -48.222  31.649  24.852  1.00  0.00     0.046 A 
ATOM      9  C   UNL     1     -48.782  32.606  25.707  1.00  0.00    -0.033 A 
ATOM     10  H   UNL     1     -46.118  34.747  25.761  1.00  0.00     0.063 H 
ATOM     11  H   UNL     1     -45.176  33.034  24.250  1.00  0.00     0.063 H 
ATOM     12  H   UNL     1     -45.815  30.418  22.937  1.00  0.00     0.065 H 
ATOM     13  H   UNL     1     -49.672  30.117  24.566  1.00  0.00     0.166 HD
ATOM     14  H   UNL     1     -49.782  32.477  26.113  1.00  0.00     0.065 H 
ENDROOT
BRANCH   1  15
ATOM     15  C   UNL     1     -48.565  34.773  26.973  1.00  0.00     0.043 C 
ATOM     16  H   UNL     1     -49.478  35.227  26.571  1.00  0.00     0.054 H 
ATOM     17  H   UNL     1     -48.833  34.317  27.934  1.00  0.00     0.054 H 
BRANCH  15  18
ATOM     18  N   UNL     1     -47.597  35.822  27.196  1.00  0.00    -0.348 N 
ATOM     19  O   UNL     1     -46.905  34.971  29.206  1.00  0.00    -0.269 OA
ATOM     20  C   UNL     1     -46.845  35.845  28.350  1.00  0.00     0.253 C 
ATOM     21  H   UNL     1     -47.695  36.661  26.641  1.00  0.00     0.164 HD
BRANCH  20  22
ATOM     22  C   UNL     1     -45.955  37.015  28.542  1.00  0.00     0.058 A 
ATOM     23  C   UNL     1     -45.315  37.164  29.773  1.00  0.00     0.042 A 
ATOM     24  C   UNL     1     -45.712  37.961  27.537  1.00  0.00    -0.037 A 
ATOM     25  N   UNL     1     -44.476  38.174  30.117  1.00  0.00    -0.238 NA
ATOM     26  H   UNL     1     -45.473  36.433  30.565  1.00  0.00     0.085 H 
ATOM     27  C   UNL     1     -44.848  39.025  27.844  1.00  0.00     0.019 A 
ATOM     28  H   UNL     1     -46.143  37.880  26.547  1.00  0.00     0.064 H 
ATOM     29  C   UNL     1     -44.291  39.056  29.118  1.00  0.00     0.137 A 
ATOM     30  C   UNL     1     -44.345  40.158  27.148  1.00  0.00    -0.035 A 
ATOM     31  N   UNL     1     -43.489  40.162  29.202  1.00  0.00    -0.346 N 
ATOM     32  C   UNL     1     -43.513  40.843  28.011  1.00  0.00     0.003 A 
ATOM     33  H   UNL     1     -44.567  40.447  26.129  1.00  0.00     0.065 H 
ATOM     34  H   UNL     1     -42.965  40.411  30.028  1.00  0.00     0.167 HD
ATOM     35  H   UNL     1     -42.935  41.748  27.881  1.00  0.00     0.082 H 
ENDBRANCH  20  22
ENDBRANCH  15  18
ENDBRANCH   1  15
BRANCH   6  36
ATOM     36  C   UNL     1     -48.157  28.536  22.907  1.00  0.00     0.036 C 
ATOM     37  H   UNL     1     -47.289  28.213  22.322  1.00  0.00     0.049 H 
ATOM     38  H   UNL     1     -49.005  28.658  22.222  1.00  0.00     0.049 H 
BRANCH  36  39
ATOM     39  N   UNL     1     -48.473  27.552  23.942  1.00  0.00    -0.311 NA
ATOM     40  H   UNL     1     -48.796  26.703  23.474  1.00  0.00     0.123 HD
BRANCH  39  41
ATOM     41  C   UNL     1     -47.284  27.236  24.738  1.00  0.00    -0.002 C 
ATOM     42  H   UNL     1     -46.641  28.122  24.802  1.00  0.00     0.043 H 
ATOM     43  H   UNL     1     -46.706  26.437  24.257  1.00  0.00     0.043 H 
BRANCH  41  44
ATOM     44  C   UNL     1     -47.701  26.829  26.153  1.00  0.00    -0.029 C 
ATOM     45  C   UNL     1     -46.661  25.972  26.923  1.00  0.00    -0.049 C 
ATOM     46  C   UNL     1     -48.671  25.624  26.291  1.00  0.00    -0.049 C 
ATOM     47  H   UNL     1     -48.019  27.708  26.728  1.00  0.00     0.032 H 
ATOM     48  C   UNL     1     -47.439  24.719  26.478  1.00  0.00    -0.053 C 
ATOM     49  H   UNL     1     -46.680  26.134  28.008  1.00  0.00     0.027 H 
ATOM     50  H   UNL     1     -45.625  26.032  26.577  1.00  0.00     0.027 H 
ATOM     51  H   UNL     1     -49.297  25.392  25.425  1.00  0.00     0.027 H 
ATOM     52  H   UNL     1     -49.310  25.680  27.181  1.00  0.00     0.027 H 
ATOM     53  H   UNL     1     -47.538  23.932  27.229  1.00  0.00     0.027 H 
ATOM     54  H   UNL     1     -47.070  24.277  25.546  1.00  0.00     0.027 H 
ENDBRANCH  41  44
ENDBRANCH  39  41
ENDBRANCH  36  39
ENDBRANCH   6  36
TORSDOF 7
ENDMDL
MODEL 2
REMARK VINA RESULT:      -9.8      1.406      2.012
REMARK SMILES O=C(NCc1ccc2cc(CNCC3CCC3)[nH]c2c1)c1cnc2[nH]ccc2c1
REMARK SMILES IDX 5 1 6 2 7 3 8 4 9 5 10 6 18 7 19 8 20 9 4 15 3 18 1 19 2 20
REMARK SMILES IDX 21 22 22 23 29 24 23 25 28 27 24 29 27 30 25 31 26 32 11 36
REMARK SMILES IDX 12 39 13 41 14 44 15 45 17 46 16 48
REMARK H PARENT 6 10 7 11 9 12 18 13 20 14 4 16 4 17 3 21 22 26 29 28 27 33
REMARK H PARENT 25 34 26 35 11 37 11 38 12 40 13 42 13 43 14 47 15 49 15 50
REMARK H PARENT 17 51 17 52 16 53 16 54
REMARK Flexibility Score: inf
ROOT
ATOM      1  C   UNL     1     -47.803  35.179  26.715  1.00  0.00    -0.027 A 
ATOM      2  C   UNL     1     -46.538  35.021  26.136  1.00  0.00    -0.057 A 
ATOM      3  C   UNL     1     -46.211  33.866  25.414  1.00  0.00    -0.052 A 
ATOM      4  C   UNL     1     -47.169  32.845  25.275  1.00  0.00    -0.000 A 
ATOM      5  C   UNL     1     -47.179  31.578  24.627  1.00  0.00    -0.032 A 
ATOM      6  C   UNL     1     -48.417  31.003  24.830  1.00  0.00     0.030 A 
ATOM      7  N   UNL     1     -49.152  31.886  25.585  1.00  0.00    -0.357 N 
ATOM      8  C   UNL     1     -48.419  33.013  25.865  1.00  0.00     0.046 A 
ATOM      9  C   UNL     1     -48.764  34.161  26.590  1.00  0.00    -0.033 A 
ATOM     10  H   UNL     1     -45.787  35.802  26.240  1.00  0.00     0.063 H 
ATOM     11  H   UNL     1     -45.227  33.762  24.964  1.00  0.00     0.063 H 
ATOM     12  H   UNL     1     -46.362  31.137  24.071  1.00  0.00     0.065 H 
ATOM     13  H   UNL     1     -50.114  31.726  25.856  1.00  0.00     0.166 HD
ATOM     14  H   UNL     1     -49.747  34.261  27.044  1.00  0.00     0.065 H 
ENDROOT
BRANCH   1  15
ATOM     15  C   UNL     1     -48.122  36.413  27.518  1.00  0.00     0.043 C 
ATOM     16  H   UNL     1     -49.038  36.892  27.155  1.00  0.00     0.054 H 
ATOM     17  H   UNL     1     -48.291  36.158  28.571  1.00  0.00     0.054 H 
BRANCH  15  18
ATOM     18  N   UNL     1     -47.043  37.369  27.425  1.00  0.00    -0.348 N 
ATOM     19  O   UNL     1     -46.458  37.158  29.628  1.00  0.00    -0.269 OA
ATOM     20  C   UNL     1     -46.297  37.691  28.537  1.00  0.00     0.253 C 
ATOM     21  H   UNL     1     -47.045  37.985  26.623  1.00  0.00     0.164 HD
BRANCH  20  22
ATOM     22  C   UNL     1     -45.282  38.759  28.373  1.00  0.00     0.058 A 
ATOM     23  C   UNL     1     -45.338  39.554  27.229  1.00  0.00     0.042 A 
ATOM     24  C   UNL     1     -44.287  39.016  29.326  1.00  0.00    -0.037 A 
ATOM     25  N   UNL     1     -44.486  40.566  26.921  1.00  0.00    -0.238 NA
ATOM     26  H   UNL     1     -46.112  39.387  26.481  1.00  0.00     0.085 H 
ATOM     27  C   UNL     1     -43.383  40.057  29.054  1.00  0.00     0.019 A 
ATOM     28  H   UNL     1     -44.215  38.464  30.255  1.00  0.00     0.064 H 
ATOM     29  C   UNL     1     -43.548  40.759  27.865  1.00  0.00     0.137 A 
ATOM     30  C   UNL     1     -42.268  40.634  29.720  1.00  0.00    -0.035 A 
ATOM     31  N   UNL     1     -42.574  41.718  27.802  1.00  0.00    -0.346 N 
ATOM     32  C   UNL     1     -41.787  41.653  28.924  1.00  0.00     0.003 A 
ATOM     33  H   UNL     1     -41.858  40.337  30.677  1.00  0.00     0.065 H 
ATOM     34  H   UNL     1     -42.477  42.366  27.034  1.00  0.00     0.167 HD
ATOM     35  H   UNL     1     -40.960  42.338  29.059  1.00  0.00     0.082 H 
ENDBRANCH  20  22
ENDBRANCH  15  18
ENDBRANCH   1  15
BRANCH   6  36
ATOM     36  C   UNL     1     -48.978  29.695  24.396  1.00  0.00     0.036 C 
ATOM     37  H   UNL     1     -49.783  29.880  23.675  1.00  0.00     0.049 H 
ATOM     38  H   UNL     1     -49.407  29.173  25.260  1.00  0.00     0.049 H 
BRANCH  36  39
ATOM     39  N   UNL     1     -47.918  28.894  23.786  1.00  0.00    -0.311 NA
ATOM     40  H   UNL     1     -47.025  29.246  24.134  1.00  0.00     0.123 HD
BRANCH  39  41
ATOM     41  C   UNL     1     -48.054  27.483  24.159  1.00  0.00    -0.002 C 
ATOM     42  H   UNL     1     -47.385  26.875  23.537  1.00  0.00     0.043 H 
ATOM     43  H   UNL     1     -49.080  27.140  23.981  1.00  0.00     0.043 H 
BRANCH  41  44
ATOM     44  C   UNL     1     -47.664  27.295  25.626  1.00  0.00    -0.029 C 
ATOM     45  C   UNL     1     -46.762  26.065  25.914  1.00  0.00    -0.049 C 
ATOM     46  C   UNL     1     -48.715  26.638  26.564  1.00  0.00    -0.049 C 
ATOM     47  H   UNL     1     -47.242  28.222  26.035  1.00  0.00     0.032 H 
ATOM     48  C   UNL     1     -48.035  25.283  26.290  1.00  0.00    -0.053 C 
ATOM     49  H   UNL     1     -46.077  26.215  26.758  1.00  0.00     0.027 H 
ATOM     50  H   UNL     1     -46.195  25.666  25.069  1.00  0.00     0.027 H 
ATOM     51  H   UNL     1     -49.762  26.707  26.257  1.00  0.00     0.027 H 
ATOM     52  H   UNL     1     -48.632  26.965  27.607  1.00  0.00     0.027 H 
ATOM     53  H   UNL     1     -47.944  24.616  27.151  1.00  0.00     0.027 H 
ATOM     54  H   UNL     1     -48.476  24.728  25.455  1.00  0.00     0.027 H 
ENDBRANCH  41  44
ENDBRANCH  39  41
ENDBRANCH  36  39
ENDBRANCH   6  36
TORSDOF 7
ENDMDL
MODEL 3
REMARK VINA RESULT:      -9.4      2.077      3.742
REMARK SMILES O=C(NCc1ccc2cc(CNCC3CCC3)[nH]c2c1)c1cnc2[nH]ccc2c1
REMARK SMILES IDX 5 1 6 2 7 3 8 4 9 5 10 6 18 7 19 8 20 9 4 15 3 18 1 19 2 20
REMARK SMILES IDX 21 22 22 23 29 24 23 25 28 27 24 29 27 30 25 31 26 32 11 36
REMARK SMILES IDX 12 39 13 41 14 44 15 45 17 46 16 48
REMARK H PARENT 6 10 7 11 9 12 18 13 20 14 4 16 4 17 3 21 22 26 29 28 27 33
REMARK H PARENT 25 34 26 35 11 37 11 38 12 40 13 42 13 43 14 47 15 49 15 50
REMARK H PARENT 17 51 17 52 16 53 16 54
REMARK Flexibility Score: inf
ROOT
ATOM      1  C   UNL     1     -46.461  35.755  28.165  1.00  0.00    -0.027 A 
ATOM      2  C   UNL     1     -47.834  35.804  27.893  1.00  0.00    -0.057 A 
ATOM      3  C   UNL     1     -48.411  34.968  26.927  1.00  0.00    -0.052 A 
ATOM      4  C   UNL     1     -47.595  34.071  26.215  1.00  0.00    -0.000 A 
ATOM      5  C   UNL     1     -47.837  33.105  25.199  1.00  0.00    -0.032 A 
ATOM      6  C   UNL     1     -46.634  32.511  24.876  1.00  0.00     0.030 A 
ATOM      7  N   UNL     1     -45.671  33.095  25.667  1.00  0.00    -0.357 N 
ATOM      8  C   UNL     1     -46.230  34.043  26.490  1.00  0.00     0.046 A 
ATOM      9  C   UNL     1     -45.635  34.868  27.452  1.00  0.00    -0.033 A 
ATOM     10  H   UNL     1     -48.475  36.497  28.435  1.00  0.00     0.063 H 
ATOM     11  H   UNL     1     -49.479  35.013  26.733  1.00  0.00     0.063 H 
ATOM     12  H   UNL     1     -48.795  32.871  24.753  1.00  0.00     0.065 H 
ATOM     13  H   UNL     1     -44.697  32.824  25.655  1.00  0.00     0.166 HD
ATOM     14  H   UNL     1     -44.565  34.827  27.641  1.00  0.00     0.065 H 
ENDROOT
BRANCH   1  15
ATOM     15  C   UNL     1     -45.855  36.687  29.181  1.00  0.00     0.043 C 
ATOM     16  H   UNL     1     -46.621  37.088  29.854  1.00  0.00     0.054 H 
ATOM     17  H   UNL     1     -45.126  36.158  29.807  1.00  0.00     0.054 H 
BRANCH  15  18
ATOM     18  N   UNL     1     -45.204  37.797  28.523  1.00  0.00    -0.348 N 
ATOM     19  O   UNL     1     -47.005  39.191  28.754  1.00  0.00    -0.269 OA
ATOM     20  C   UNL     1     -45.873  38.986  28.334  1.00  0.00     0.253 C 
ATOM     21  H   UNL     1     -44.386  37.584  27.968  1.00  0.00     0.164 HD
BRANCH  20  22
ATOM     22  C   UNL     1     -45.166  40.032  27.556  1.00  0.00     0.058 A 
ATOM     23  C   UNL     1     -45.866  40.688  26.544  1.00  0.00     0.042 A 
ATOM     24  C   UNL     1     -43.839  40.403  27.809  1.00  0.00    -0.037 A 
ATOM     25  N   UNL     1     -45.371  41.662  25.736  1.00  0.00    -0.238 NA
ATOM     26  H   UNL     1     -46.904  40.432  26.339  1.00  0.00     0.085 H 
ATOM     27  C   UNL     1     -43.282  41.409  27.001  1.00  0.00     0.019 A 
ATOM     28  H   UNL     1     -43.255  39.963  28.608  1.00  0.00     0.064 H 
ATOM     29  C   UNL     1     -44.091  41.967  26.018  1.00  0.00     0.137 A 
ATOM     30  C   UNL     1     -42.023  42.064  26.918  1.00  0.00    -0.035 A 
ATOM     31  N   UNL     1     -43.360  42.916  25.357  1.00  0.00    -0.346 N 
ATOM     32  C   UNL     1     -42.099  42.986  25.894  1.00  0.00     0.003 A 
ATOM     33  H   UNL     1     -41.154  41.883  27.536  1.00  0.00     0.065 H 
ATOM     34  H   UNL     1     -43.723  43.471  24.596  1.00  0.00     0.167 HD
ATOM     35  H   UNL     1     -41.371  43.685  25.504  1.00  0.00     0.082 H 
ENDBRANCH  20  22
ENDBRANCH  15  18
ENDBRANCH   1  15
BRANCH   6  36
ATOM     36  C   UNL     1     -46.291  31.455  23.886  1.00  0.00     0.036 C 
ATOM     37  H   UNL     1     -45.200  31.351  23.846  1.00  0.00     0.049 H 
ATOM     38  H   UNL     1     -46.642  31.755  22.891  1.00  0.00     0.049 H 
BRANCH  36  39
ATOM     39  N   UNL     1     -46.911  30.195  24.290  1.00  0.00    -0.311 NA
ATOM     40  H   UNL     1     -47.680  30.418  24.925  1.00  0.00     0.123 HD
BRANCH  39  41
ATOM     41  C   UNL     1     -47.444  29.481  23.127  1.00  0.00    -0.002 C 
ATOM     42  H   UNL     1     -46.665  29.404  22.358  1.00  0.00     0.043 H 
ATOM     43  H   UNL     1     -48.287  30.033  22.695  1.00  0.00     0.043 H 
BRANCH  41  44
ATOM     44  C   UNL     1     -47.870  28.070  23.535  1.00  0.00    -0.029 C 
ATOM     45  C   UNL     1     -49.309  27.669  23.112  1.00  0.00    -0.049 C 
ATOM     46  C   UNL     1     -48.334  27.862  25.003  1.00  0.00    -0.049 C 
ATOM     47  H   UNL     1     -47.124  27.332  23.210  1.00  0.00     0.032 H 
ATOM     48  C   UNL     1     -49.782  28.076  24.521  1.00  0.00    -0.053 C 
ATOM     49  H   UNL     1     -49.421  26.598  22.907  1.00  0.00     0.027 H 
ATOM     50  H   UNL     1     -49.750  28.233  22.285  1.00  0.00     0.027 H 
ATOM     51  H   UNL     1     -47.975  28.584  25.741  1.00  0.00     0.027 H 
ATOM     52  H   UNL     1     -48.145  26.850  25.380  1.00  0.00     0.027 H 
ATOM     53  H   UNL     1     -50.533  27.425  24.974  1.00  0.00     0.027 H 
ATOM     54  H   UNL     1     -50.122  29.115  24.591  1.00  0.00     0.027 H 
ENDBRANCH  41  44
ENDBRANCH  39  41
ENDBRANCH  36  39
ENDBRANCH   6  36
TORSDOF 7
ENDMDL
MODEL 4
REMARK VINA RESULT:      -9.4      2.306     11.300
REMARK SMILES O=C(NCc1ccc2cc(CNCC3CCC3)[nH]c2c1)c1cnc2[nH]ccc2c1
REMARK SMILES IDX 5 1 6 2 7 3 8 4 9 5 10 6 18 7 19 8 20 9 4 15 3 18 1 19 2 20
REMARK SMILES IDX 21 22 22 23 29 24 23 25 28 27 24 29 27 30 25 31 26 32 11 36
REMARK SMILES IDX 12 39 13 41 14 44 15 45 17 46 16 48
REMARK H PARENT 6 10 7 11 9 12 18 13 20 14 4 16 4 17 3 21 22 26 29 28 27 33
REMARK H PARENT 25 34 26 35 11 37 11 38 12 40 13 42 13 43 14 47 15 49 15 50
REMARK H PARENT 17 51 17 52 16 53 16 54
REMARK Flexibility Score: inf
ROOT
ATOM      1  C   UNL     1     -46.431  37.534  28.152  1.00  0.00    -0.027 A 
ATOM      2  C   UNL     1     -46.880  38.125  26.964  1.00  0.00    -0.057 A 
ATOM      3  C   UNL     1     -46.276  39.285  26.460  1.00  0.00    -0.052 A 
ATOM      4  C   UNL     1     -45.206  39.868  27.164  1.00  0.00    -0.000 A 
ATOM      5  C   UNL     1     -44.384  41.009  26.947  1.00  0.00    -0.032 A 
ATOM      6  C   UNL     1     -43.482  41.090  27.989  1.00  0.00     0.030 A 
ATOM      7  N   UNL     1     -43.740  40.032  28.829  1.00  0.00    -0.357 N 
ATOM      8  C   UNL     1     -44.780  39.273  28.349  1.00  0.00     0.046 A 
ATOM      9  C   UNL     1     -45.369  38.114  28.868  1.00  0.00    -0.033 A 
ATOM     10  H   UNL     1     -47.709  37.686  26.413  1.00  0.00     0.063 H 
ATOM     11  H   UNL     1     -46.631  39.727  25.534  1.00  0.00     0.063 H 
ATOM     12  H   UNL     1     -44.449  41.697  26.115  1.00  0.00     0.065 H 
ATOM     13  H   UNL     1     -43.201  39.834  29.663  1.00  0.00     0.166 HD
ATOM     14  H   UNL     1     -45.017  37.676  29.798  1.00  0.00     0.065 H 
ENDROOT
BRANCH   1  15
ATOM     15  C   UNL     1     -47.117  36.309  28.696  1.00  0.00     0.043 C 
ATOM     16  H   UNL     1     -46.694  36.018  29.665  1.00  0.00     0.054 H 
ATOM     17  H   UNL     1     -48.185  36.501  28.859  1.00  0.00     0.054 H 
BRANCH  15  18
ATOM     18  N   UNL     1     -46.965  35.198  27.784  1.00  0.00    -0.348 N 
ATOM     19  O   UNL     1     -49.132  35.301  27.052  1.00  0.00    -0.269 OA
ATOM     20  C   UNL     1     -48.035  34.757  27.036  1.00  0.00     0.253 C 
ATOM     21  H   UNL     1     -46.166  34.595  27.926  1.00  0.00     0.164 HD
BRANCH  20  22
ATOM     22  C   UNL     1     -47.816  33.547  26.209  1.00  0.00     0.058 A 
ATOM     23  C   UNL     1     -46.563  33.363  25.624  1.00  0.00     0.042 A 
ATOM     24  C   UNL     1     -48.804  32.574  26.008  1.00  0.00    -0.037 A 
ATOM     25  N   UNL     1     -46.198  32.319  24.836  1.00  0.00    -0.238 NA
ATOM     26  H   UNL     1     -45.773  34.096  25.779  1.00  0.00     0.085 H 
ATOM     27  C   UNL     1     -48.472  31.471  25.202  1.00  0.00     0.019 A 
ATOM     28  H   UNL     1     -49.782  32.635  26.469  1.00  0.00     0.064 H 
ATOM     29  C   UNL     1     -47.188  31.424  24.670  1.00  0.00     0.137 A 
ATOM     30  C   UNL     1     -49.144  30.300  24.757  1.00  0.00    -0.035 A 
ATOM     31  N   UNL     1     -47.080  30.280  23.928  1.00  0.00    -0.346 N 
ATOM     32  C   UNL     1     -48.262  29.586  23.971  1.00  0.00     0.003 A 
ATOM     33  H   UNL     1     -50.161  30.009  24.983  1.00  0.00     0.065 H 
ATOM     34  H   UNL     1     -46.240  30.010  23.437  1.00  0.00     0.167 HD
ATOM     35  H   UNL     1     -48.372  28.647  23.444  1.00  0.00     0.082 H 
ENDBRANCH  20  22
ENDBRANCH  15  18
ENDBRANCH   1  15
BRANCH   6  36
ATOM     36  C   UNL     1     -42.404  42.073  28.285  1.00  0.00     0.036 C 
ATOM     37  H   UNL     1     -41.434  41.587  28.132  1.00  0.00     0.049 H 
ATOM     38  H   UNL     1     -42.468  42.385  29.334  1.00  0.00     0.049 H 
BRANCH  36  39
ATOM     39  N   UNL     1     -42.547  43.226  27.397  1.00  0.00    -0.311 NA
ATOM     40  H   UNL     1     -42.044  44.007  27.821  1.00  0.00     0.123 HD
BRANCH  39  41
ATOM     41  C   UNL     1     -41.969  42.943  26.081  1.00  0.00    -0.002 C 
ATOM     42  H   UNL     1     -42.286  41.946  25.749  1.00  0.00     0.043 H 
ATOM     43  H   UNL     1     -40.874  42.944  26.138  1.00  0.00     0.043 H 
BRANCH  41  44
ATOM     44  C   UNL     1     -42.462  43.976  25.066  1.00  0.00    -0.029 C 
ATOM     45  C   UNL     1     -44.003  44.053  24.901  1.00  0.00    -0.049 C 
ATOM     46  C   UNL     1     -42.406  43.582  23.564  1.00  0.00    -0.049 C 
ATOM     47  H   UNL     1     -42.019  44.959  25.270  1.00  0.00     0.032 H 
ATOM     48  C   UNL     1     -43.870  43.118  23.685  1.00  0.00    -0.053 C 
ATOM     49  H   UNL     1     -44.365  45.056  24.643  1.00  0.00     0.027 H 
ATOM     50  H   UNL     1     -44.603  43.667  25.730  1.00  0.00     0.027 H 
ATOM     51  H   UNL     1     -41.689  42.805  23.284  1.00  0.00     0.027 H 
ATOM     52  H   UNL     1     -42.274  44.440  22.894  1.00  0.00     0.027 H 
ATOM     53  H   UNL     1     -44.513  43.353  22.833  1.00  0.00     0.027 H 
ATOM     54  H   UNL     1     -43.978  42.055  23.929  1.00  0.00     0.027 H 
ENDBRANCH  41  44
ENDBRANCH  39  41
ENDBRANCH  36  39
ENDBRANCH   6  36
TORSDOF 7
ENDMDL
MODEL 5
REMARK VINA RESULT:      -9.4      2.115      3.865
REMARK SMILES O=C(NCc1ccc2cc(CNCC3CCC3)[nH]c2c1)c1cnc2[nH]ccc2c1
REMARK SMILES IDX 5 1 6 2 7 3 8 4 9 5 10 6 18 7 19 8 20 9 4 15 3 18 1 19 2 20
REMARK SMILES IDX 21 22 22 23 29 24 23 25 28 27 24 29 27 30 25 31 26 32 11 36
REMARK SMILES IDX 12 39 13 41 14 44 15 45 17 46 16 48
REMARK H PARENT 6 10 7 11 9 12 18 13 20 14 4 16 4 17 3 21 22 26 29 28 27 33
REMARK H PARENT 25 34 26 35 11 37 11 38 12 40 13 42 13 43 14 47 15 49 15 50
REMARK H PARENT 17 51 17 52 16 53 16 54
REMARK Flexibility Score: inf
ROOT
ATOM      1  C   UNL     1     -46.300  36.248  28.541  1.00  0.00    -0.027 A 
ATOM      2  C   UNL     1     -47.564  36.707  28.149  1.00  0.00    -0.057 A 
ATOM      3  C   UNL     1     -48.401  35.924  27.344  1.00  0.00    -0.052 A 
ATOM      4  C   UNL     1     -47.960  34.658  26.915  1.00  0.00    -0.000 A 
ATOM      5  C   UNL     1     -48.533  33.628  26.118  1.00  0.00    -0.032 A 
ATOM      6  C   UNL     1     -47.621  32.595  26.035  1.00  0.00     0.030 A 
ATOM      7  N   UNL     1     -46.515  32.974  26.758  1.00  0.00    -0.357 N 
ATOM      8  C   UNL     1     -46.697  34.221  27.305  1.00  0.00     0.046 A 
ATOM      9  C   UNL     1     -45.846  34.988  28.111  1.00  0.00    -0.033 A 
ATOM     10  H   UNL     1     -47.914  37.686  28.470  1.00  0.00     0.063 H 
ATOM     11  H   UNL     1     -49.381  36.291  27.054  1.00  0.00     0.063 H 
ATOM     12  H   UNL     1     -49.510  33.646  25.653  1.00  0.00     0.065 H 
ATOM     13  H   UNL     1     -45.702  32.385  26.889  1.00  0.00     0.166 HD
ATOM     14  H   UNL     1     -44.863  34.622  28.394  1.00  0.00     0.065 H 
ENDROOT
BRANCH   1  15
ATOM     15  C   UNL     1     -45.401  37.120  29.377  1.00  0.00     0.043 C 
ATOM     16  H   UNL     1     -45.934  37.510  30.251  1.00  0.00     0.054 H 
ATOM     17  H   UNL     1     -44.545  36.546  29.755  1.00  0.00     0.054 H 
BRANCH  15  18
ATOM     18  N   UNL     1     -44.920  38.240  28.601  1.00  0.00    -0.348 N 
ATOM     19  O   UNL     1     -43.616  39.055  30.297  1.00  0.00    -0.269 OA
ATOM     20  C   UNL     1     -44.061  39.160  29.160  1.00  0.00     0.253 C 
ATOM     21  H   UNL     1     -45.443  38.479  27.769  1.00  0.00     0.164 HD
BRANCH  20  22
ATOM     22  C   UNL     1     -43.704  40.333  28.327  1.00  0.00     0.058 A 
ATOM     23  C   UNL     1     -42.738  41.216  28.808  1.00  0.00     0.042 A 
ATOM     24  C   UNL     1     -44.278  40.578  27.073  1.00  0.00    -0.037 A 
ATOM     25  N   UNL     1     -42.301  42.337  28.178  1.00  0.00    -0.238 NA
ATOM     26  H   UNL     1     -42.264  41.039  29.772  1.00  0.00     0.085 H 
ATOM     27  C   UNL     1     -43.856  41.725  26.380  1.00  0.00     0.019 A 
ATOM     28  H   UNL     1     -45.002  39.908  26.623  1.00  0.00     0.064 H 
ATOM     29  C   UNL     1     -42.895  42.527  26.986  1.00  0.00     0.137 A 
ATOM     30  C   UNL     1     -44.163  42.328  25.129  1.00  0.00    -0.035 A 
ATOM     31  N   UNL     1     -42.630  43.576  26.149  1.00  0.00    -0.346 N 
ATOM     32  C   UNL     1     -43.395  43.469  25.015  1.00  0.00     0.003 A 
ATOM     33  H   UNL     1     -44.870  41.970  24.392  1.00  0.00     0.065 H 
ATOM     34  H   UNL     1     -41.962  44.303  26.359  1.00  0.00     0.167 HD
ATOM     35  H   UNL     1     -43.324  44.208  24.228  1.00  0.00     0.082 H 
ENDBRANCH  20  22
ENDBRANCH  15  18
ENDBRANCH   1  15
BRANCH   6  36
ATOM     36  C   UNL     1     -47.679  31.285  25.331  1.00  0.00     0.036 C 
ATOM     37  H   UNL     1     -46.656  30.928  25.168  1.00  0.00     0.049 H 
ATOM     38  H   UNL     1     -48.157  31.413  24.352  1.00  0.00     0.049 H 
BRANCH  36  39
ATOM     39  N   UNL     1     -48.430  30.331  26.147  1.00  0.00    -0.311 NA
ATOM     40  H   UNL     1     -49.335  30.754  26.363  1.00  0.00     0.123 HD
BRANCH  39  41
ATOM     41  C   UNL     1     -48.648  29.081  25.416  1.00  0.00    -0.002 C 
ATOM     42  H   UNL     1     -47.807  28.904  24.734  1.00  0.00     0.043 H 
ATOM     43  H   UNL     1     -49.560  29.148  24.811  1.00  0.00     0.043 H 
BRANCH  41  44
ATOM     44  C   UNL     1     -48.733  27.913  26.401  1.00  0.00    -0.029 C 
ATOM     45  C   UNL     1     -47.763  26.736  26.111  1.00  0.00    -0.049 C 
ATOM     46  C   UNL     1     -49.891  26.896  26.203  1.00  0.00    -0.049 C 
ATOM     47  H   UNL     1     -48.648  28.273  27.435  1.00  0.00     0.032 H 
ATOM     48  C   UNL     1     -48.920  26.030  25.379  1.00  0.00    -0.053 C 
ATOM     49  H   UNL     1     -47.433  26.210  27.015  1.00  0.00     0.027 H 
ATOM     50  H   UNL     1     -46.887  26.965  25.498  1.00  0.00     0.027 H 
ATOM     51  H   UNL     1     -50.774  27.253  25.664  1.00  0.00     0.027 H 
ATOM     52  H   UNL     1     -50.217  26.421  27.135  1.00  0.00     0.027 H 
ATOM     53  H   UNL     1     -48.994  24.952  25.540  1.00  0.00     0.027 H 
ATOM     54  H   UNL     1     -48.952  26.231  24.303  1.00  0.00     0.027 H 
ENDBRANCH  41  44
ENDBRANCH  39  41
ENDBRANCH  36  39
ENDBRANCH   6  36
TORSDOF 7
ENDMDL
MODEL 6
REMARK VINA RESULT:      -9.4      2.603      4.631
REMARK SMILES O=C(NCc1ccc2cc(CNCC3CCC3)[nH]c2c1)c1cnc2[nH]ccc2c1
REMARK SMILES IDX 5 1 6 2 7 3 8 4 9 5 10 6 18 7 19 8 20 9 4 15 3 18 1 19 2 20
REMARK SMILES IDX 21 22 22 23 29 24 23 25 28 27 24 29 27 30 25 31 26 32 11 36
REMARK SMILES IDX 12 39 13 41 14 44 15 45 17 46 16 48
REMARK H PARENT 6 10 7 11 9 12 18 13 20 14 4 16 4 17 3 21 22 26 29 28 27 33
REMARK H PARENT 25 34 26 35 11 37 11 38 12 40 13 42 13 43 14 47 15 49 15 50
REMARK H PARENT 17 51 17 52 16 53 16 54
REMARK Flexibility Score: inf
ROOT
ATOM      1  C   UNL     1     -46.233  36.332  28.483  1.00  0.00    -0.027 A 
ATOM      2  C   UNL     1     -47.616  36.481  28.316  1.00  0.00    -0.057 A 
ATOM      3  C   UNL     1     -48.335  35.650  27.448  1.00  0.00    -0.052 A 
ATOM      4  C   UNL     1     -47.653  34.653  26.725  1.00  0.00    -0.000 A 
ATOM      5  C   UNL     1     -48.055  33.661  25.788  1.00  0.00    -0.032 A 
ATOM      6  C   UNL     1     -46.933  32.954  25.406  1.00  0.00     0.030 A 
ATOM      7  N   UNL     1     -45.865  33.494  26.085  1.00  0.00    -0.357 N 
ATOM      8  C   UNL     1     -46.277  34.525  26.895  1.00  0.00     0.046 A 
ATOM      9  C   UNL     1     -45.542  35.345  27.759  1.00  0.00    -0.033 A 
ATOM     10  H   UNL     1     -48.153  37.252  28.866  1.00  0.00     0.063 H 
ATOM     11  H   UNL     1     -49.408  35.774  27.335  1.00  0.00     0.063 H 
ATOM     12  H   UNL     1     -49.062  33.487  25.431  1.00  0.00     0.065 H 
ATOM     13  H   UNL     1     -44.919  33.142  26.013  1.00  0.00     0.166 HD
ATOM     14  H   UNL     1     -44.467  35.224  27.866  1.00  0.00     0.065 H 
ENDROOT
BRANCH   1  15
ATOM     15  C   UNL     1     -45.473  37.260  29.394  1.00  0.00     0.043 C 
ATOM     16  H   UNL     1     -46.127  37.668  30.174  1.00  0.00     0.054 H 
ATOM     17  H   UNL     1     -44.663  36.725  29.904  1.00  0.00     0.054 H 
BRANCH  15  18
ATOM     18  N   UNL     1     -44.920  38.363  28.644  1.00  0.00    -0.348 N 
ATOM     19  O   UNL     1     -43.576  39.060  30.362  1.00  0.00    -0.269 OA
ATOM     20  C   UNL     1     -44.007  39.216  29.226  1.00  0.00     0.253 C 
ATOM     21  H   UNL     1     -45.423  38.652  27.815  1.00  0.00     0.164 HD
BRANCH  20  22
ATOM     22  C   UNL     1     -43.574  40.381  28.418  1.00  0.00     0.058 A 
ATOM     23  C   UNL     1     -42.564  41.198  28.925  1.00  0.00     0.042 A 
ATOM     24  C   UNL     1     -44.119  40.682  27.163  1.00  0.00    -0.037 A 
ATOM     25  N   UNL     1     -42.056  42.303  28.322  1.00  0.00    -0.238 NA
ATOM     26  H   UNL     1     -42.111  40.976  29.891  1.00  0.00     0.085 H 
ATOM     27  C   UNL     1     -43.623  41.816  26.496  1.00  0.00     0.019 A 
ATOM     28  H   UNL     1     -44.875  40.064  26.694  1.00  0.00     0.064 H 
ATOM     29  C   UNL     1     -42.624  42.548  27.127  1.00  0.00     0.137 A 
ATOM     30  C   UNL     1     -43.881  42.458  25.254  1.00  0.00    -0.035 A 
ATOM     31  N   UNL     1     -42.289  43.596  26.313  1.00  0.00    -0.346 N 
ATOM     32  C   UNL     1     -43.046  43.554  25.169  1.00  0.00     0.003 A 
ATOM     33  H   UNL     1     -44.599  42.155  24.503  1.00  0.00     0.065 H 
ATOM     34  H   UNL     1     -41.582  44.279  26.543  1.00  0.00     0.167 HD
ATOM     35  H   UNL     1     -42.924  44.302  24.397  1.00  0.00     0.082 H 
ENDBRANCH  20  22
ENDBRANCH  15  18
ENDBRANCH   1  15
BRANCH   6  36
ATOM     36  C   UNL     1     -46.757  31.825  24.453  1.00  0.00     0.036 C 
ATOM     37  H   UNL     1     -45.685  31.671  24.283  1.00  0.00     0.049 H 
ATOM     38  H   UNL     1     -47.222  32.077  23.492  1.00  0.00     0.049 H 
BRANCH  36  39
ATOM     39  N   UNL     1     -47.365  30.620  25.016  1.00  0.00    -0.311 NA
ATOM     40  H   UNL     1     -47.795  30.877  25.906  1.00  0.00     0.123 HD
BRANCH  39  41
ATOM     41  C   UNL     1     -48.397  30.092  24.120  1.00  0.00    -0.002 C 
ATOM     42  H   UNL     1     -49.381  30.200  24.593  1.00  0.00     0.043 H 
ATOM     43  H   UNL     1     -48.231  29.023  23.937  1.00  0.00     0.043 H 
BRANCH  41  44
ATOM     44  C   UNL     1     -48.395  30.875  22.807  1.00  0.00    -0.029 C 
ATOM     45  C   UNL     1     -49.800  31.233  22.252  1.00  0.00    -0.049 C 
ATOM     46  C   UNL     1     -48.176  30.070  21.496  1.00  0.00    -0.049 C 
ATOM     47  H   UNL     1     -47.745  31.757  22.885  1.00  0.00     0.032 H 
ATOM     48  C   UNL     1     -49.707  29.986  21.354  1.00  0.00    -0.053 C 
ATOM     49  H   UNL     1     -49.820  32.175  21.691  1.00  0.00     0.027 H 
ATOM     50  H   UNL     1     -50.623  31.236  22.972  1.00  0.00     0.027 H 
ATOM     51  H   UNL     1     -47.660  29.110  21.588  1.00  0.00     0.027 H 
ATOM     52  H   UNL     1     -47.695  30.654  20.703  1.00  0.00     0.027 H 
ATOM     53  H   UNL     1     -50.096  30.103  20.339  1.00  0.00     0.027 H 
ATOM     54  H   UNL     1     -50.144  29.086  21.799  1.00  0.00     0.027 H 
ENDBRANCH  41  44
ENDBRANCH  39  41
ENDBRANCH  36  39
ENDBRANCH   6  36
TORSDOF 7
ENDMDL
MODEL 7
REMARK VINA RESULT:      -9.4      2.037     10.881
REMARK SMILES O=C(NCc1ccc2cc(CNCC3CCC3)[nH]c2c1)c1cnc2[nH]ccc2c1
REMARK SMILES IDX 5 1 6 2 7 3 8 4 9 5 10 6 18 7 19 8 20 9 4 15 3 18 1 19 2 20
REMARK SMILES IDX 21 22 22 23 29 24 23 25 28 27 24 29 27 30 25 31 26 32 11 36
REMARK SMILES IDX 12 39 13 41 14 44 15 45 17 46 16 48
REMARK H PARENT 6 10 7 11 9 12 18 13 20 14 4 16 4 17 3 21 22 26 29 28 27 33
REMARK H PARENT 25 34 26 35 11 37 11 38 12 40 13 42 13 43 14 47 15 49 15 50
REMARK H PARENT 17 51 17 52 16 53 16 54
REMARK Flexibility Score: inf
ROOT
ATOM      1  C   UNL     1     -48.457  33.784  26.159  1.00  0.00    -0.027 A 
ATOM      2  C   UNL     1     -47.099  33.665  25.839  1.00  0.00    -0.057 A 
ATOM      3  C   UNL     1     -46.177  34.651  26.213  1.00  0.00    -0.052 A 
ATOM      4  C   UNL     1     -46.626  35.784  26.917  1.00  0.00    -0.000 A 
ATOM      5  C   UNL     1     -45.986  36.942  27.440  1.00  0.00    -0.032 A 
ATOM      6  C   UNL     1     -46.947  37.726  28.044  1.00  0.00     0.030 A 
ATOM      7  N   UNL     1     -48.150  37.075  27.896  1.00  0.00    -0.357 N 
ATOM      8  C   UNL     1     -47.981  35.892  27.218  1.00  0.00     0.046 A 
ATOM      9  C   UNL     1     -48.917  34.917  26.854  1.00  0.00    -0.033 A 
ATOM     10  H   UNL     1     -46.740  32.795  25.291  1.00  0.00     0.063 H 
ATOM     11  H   UNL     1     -45.126  34.540  25.963  1.00  0.00     0.063 H 
ATOM     12  H   UNL     1     -44.930  37.173  27.379  1.00  0.00     0.065 H 
ATOM     13  H   UNL     1     -49.023  37.419  28.275  1.00  0.00     0.166 HD
ATOM     14  H   UNL     1     -49.970  35.032  27.099  1.00  0.00     0.065 H 
ENDROOT
BRANCH   1  15
ATOM     15  C   UNL     1     -49.438  32.731  25.716  1.00  0.00     0.043 C 
ATOM     16  H   UNL     1     -50.319  32.715  26.367  1.00  0.00     0.054 H 
ATOM     17  H   UNL     1     -49.796  32.937  24.699  1.00  0.00     0.054 H 
BRANCH  15  18
ATOM     18  N   UNL     1     -48.824  31.423  25.751  1.00  0.00    -0.348 N 
ATOM     19  O   UNL     1     -49.465  30.894  23.617  1.00  0.00    -0.269 OA
ATOM     20  C   UNL     1     -48.921  30.577  24.668  1.00  0.00     0.253 C 
ATOM     21  H   UNL     1     -48.587  31.053  26.661  1.00  0.00     0.164 HD
BRANCH  20  22
ATOM     22  C   UNL     1     -48.354  29.217  24.832  1.00  0.00     0.058 A 
ATOM     23  C   UNL     1     -47.361  28.804  23.945  1.00  0.00     0.042 A 
ATOM     24  C   UNL     1     -48.758  28.342  25.849  1.00  0.00    -0.037 A 
ATOM     25  N   UNL     1     -46.742  27.595  23.950  1.00  0.00    -0.238 NA
ATOM     26  H   UNL     1     -47.016  29.472  23.157  1.00  0.00     0.085 H 
ATOM     27  C   UNL     1     -48.144  27.078  25.898  1.00  0.00     0.019 A 
ATOM     28  H   UNL     1     -49.493  28.617  26.595  1.00  0.00     0.064 H 
ATOM     29  C   UNL     1     -47.177  26.794  24.940  1.00  0.00     0.137 A 
ATOM     30  C   UNL     1     -48.247  25.930  26.730  1.00  0.00    -0.035 A 
ATOM     31  N   UNL     1     -46.714  25.527  25.170  1.00  0.00    -0.346 N 
ATOM     32  C   UNL     1     -47.356  24.989  26.256  1.00  0.00     0.003 A 
ATOM     33  H   UNL     1     -48.902  25.802  27.582  1.00  0.00     0.065 H 
ATOM     34  H   UNL     1     -46.001  25.084  24.610  1.00  0.00     0.167 HD
ATOM     35  H   UNL     1     -47.122  23.989  26.597  1.00  0.00     0.082 H 
ENDBRANCH  20  22
ENDBRANCH  15  18
ENDBRANCH   1  15
BRANCH   6  36
ATOM     36  C   UNL     1     -46.854  39.039  28.739  1.00  0.00     0.036 C 
ATOM     37  H   UNL     1     -46.795  38.862  29.819  1.00  0.00     0.049 H 
ATOM     38  H   UNL     1     -47.758  39.627  28.538  1.00  0.00     0.049 H 
BRANCH  36  39
ATOM     39  N   UNL     1     -45.665  39.749  28.269  1.00  0.00    -0.311 NA
ATOM     40  H   UNL     1     -44.930  39.056  28.117  1.00  0.00     0.123 HD
BRANCH  39  41
ATOM     41  C   UNL     1     -45.938  40.442  27.008  1.00  0.00    -0.002 C 
ATOM     42  H   UNL     1     -46.280  41.463  27.218  1.00  0.00     0.043 H 
ATOM     43  H   UNL     1     -46.736  39.929  26.457  1.00  0.00     0.043 H 
BRANCH  41  44
ATOM     44  C   UNL     1     -44.660  40.516  26.170  1.00  0.00    -0.029 C 
ATOM     45  C   UNL     1     -43.380  40.905  26.957  1.00  0.00    -0.049 C 
ATOM     46  C   UNL     1     -44.433  41.803  25.330  1.00  0.00    -0.049 C 
ATOM     47  H   UNL     1     -44.525  39.594  25.591  1.00  0.00     0.032 H 
ATOM     48  C   UNL     1     -43.603  42.360  26.503  1.00  0.00    -0.053 C 
ATOM     49  H   UNL     1     -42.465  40.457  26.550  1.00  0.00     0.027 H 
ATOM     50  H   UNL     1     -43.401  40.739  28.038  1.00  0.00     0.027 H 
ATOM     51  H   UNL     1     -45.321  42.384  25.067  1.00  0.00     0.027 H 
ATOM     52  H   UNL     1     -43.843  41.631  24.422  1.00  0.00     0.027 H 
ATOM     53  H   UNL     1     -42.703  42.913  26.226  1.00  0.00     0.027 H 
ATOM     54  H   UNL     1     -44.186  42.960  27.210  1.00  0.00     0.027 H 
ENDBRANCH  41  44
ENDBRANCH  39  41
ENDBRANCH  36  39
ENDBRANCH   6  36
TORSDOF 7
ENDMDL
