MODEL 1
REMARK VINA RESULT:      -8.8      0.000      0.000
REMARK SMILES CCc1cc(NCCOC)c2c(F)cc(OCc3cncc(-n4cc(COC)c5c(N)ncnc54)c3)cc2n1
REMARK SMILES IDX 16 1 15 2 3 3 4 4 39 5 5 6 38 8 11 9 37 10 12 11 13 13 14 14
REMARK SMILES IDX 2 16 1 19 6 23 7 25 8 28 9 31 10 32 17 36 18 39 19 40 36 41
REMARK SMILES IDX 20 42 22 44 21 46 23 48 24 49 35 50 25 51 29 53 34 54 30 55
REMARK SMILES IDX 33 56 32 57 26 59 27 62 28 63 31 67
REMARK H PARENT 4 7 37 12 14 15 2 17 2 18 1 20 1 21 1 22 6 24 7 26 7 27 8 29
REMARK H PARENT 8 30 10 33 10 34 10 35 17 37 17 38 19 43 36 45 21 47 24 52
REMARK H PARENT 33 58 26 60 26 61 28 64 28 65 28 66 31 68 31 69
REMARK Flexibility Score: inf
ROOT
ATOM      1  O   UNL     1     -47.405  33.279  27.171  1.00  0.00    -0.489 OA
ENDROOT
BRANCH   1   2
ATOM      2  C   UNL     1     -47.464  32.405  26.118  1.00  0.00     0.124 A 
ATOM      3  C   UNL     1     -49.138  28.450  24.098  1.00  0.00     0.043 A 
ATOM      4  C   UNL     1     -48.394  28.628  22.941  1.00  0.00    -0.017 A 
ATOM      5  N   UNL     1     -49.109  29.330  25.122  1.00  0.00    -0.252 NA
ATOM      6  C   UNL     1     -47.588  29.761  22.805  1.00  0.00     0.048 A 
ATOM      7  H   UNL     1     -48.428  27.870  22.167  1.00  0.00     0.066 H 
ATOM      8  C   UNL     1     -48.313  30.407  25.026  1.00  0.00     0.079 A 
ATOM      9  C   UNL     1     -47.516  30.674  23.895  1.00  0.00     0.059 A 
ATOM     10  C   UNL     1     -48.286  31.280  26.108  1.00  0.00     0.007 A 
ATOM     11  C   UNL     1     -46.717  31.841  23.919  1.00  0.00     0.138 A 
ATOM     12  H   UNL     1     -48.931  31.065  26.954  1.00  0.00     0.069 H 
ATOM     13  F   UNL     1     -45.945  32.153  22.865  1.00  0.00    -0.206 F 
ATOM     14  C   UNL     1     -46.694  32.704  25.007  1.00  0.00     0.017 A 
ATOM     15  H   UNL     1     -46.063  33.587  24.984  1.00  0.00     0.069 H 
BRANCH   3  16
ATOM     16  C   UNL     1     -50.036  27.252  24.256  1.00  0.00    -0.013 C 
ATOM     17  H   UNL     1     -51.043  27.576  24.543  1.00  0.00     0.033 H 
ATOM     18  H   UNL     1     -50.136  26.747  23.288  1.00  0.00     0.033 H 
BRANCH  16  19
ATOM     19  C   UNL     1     -49.487  26.274  25.282  1.00  0.00    -0.060 C 
ATOM     20  H   UNL     1     -49.770  25.243  25.041  1.00  0.00     0.023 H 
ATOM     21  H   UNL     1     -48.394  26.326  25.310  1.00  0.00     0.023 H 
ATOM     22  H   UNL     1     -49.865  26.499  26.285  1.00  0.00     0.023 H 
ENDBRANCH  16  19
ENDBRANCH   3  16
BRANCH   6  23
ATOM     23  N   UNL     1     -46.784  29.930  21.652  1.00  0.00    -0.382 N 
ATOM     24  H   UNL     1     -45.843  30.233  21.931  1.00  0.00     0.160 HD
BRANCH  23  25
ATOM     25  C   UNL     1     -47.273  30.830  20.598  1.00  0.00     0.038 C 
ATOM     26  H   UNL     1     -47.025  31.849  20.911  1.00  0.00     0.051 H 
ATOM     27  H   UNL     1     -46.762  30.676  19.643  1.00  0.00     0.051 H 
BRANCH  25  28
ATOM     28  C   UNL     1     -48.795  30.713  20.411  1.00  0.00     0.063 C 
ATOM     29  H   UNL     1     -49.173  29.867  20.996  1.00  0.00     0.059 H 
ATOM     30  H   UNL     1     -49.041  30.513  19.362  1.00  0.00     0.059 H 
BRANCH  28  31
ATOM     31  O   UNL     1     -49.503  31.873  20.864  1.00  0.00    -0.383 OA
BRANCH  31  32
ATOM     32  C   UNL     1     -50.556  31.580  21.771  1.00  0.00     0.036 C 
ATOM     33  H   UNL     1     -51.484  31.982  21.357  1.00  0.00     0.053 H 
ATOM     34  H   UNL     1     -50.375  32.056  22.740  1.00  0.00     0.053 H 
ATOM     35  H   UNL     1     -50.677  30.502  21.894  1.00  0.00     0.053 H 
ENDBRANCH  31  32
ENDBRANCH  28  31
ENDBRANCH  25  28
ENDBRANCH  23  25
ENDBRANCH   6  23
ENDBRANCH   1   2
BRANCH   1  36
ATOM     36  C   UNL     1     -46.314  34.208  27.102  1.00  0.00     0.115 C 
ATOM     37  H   UNL     1     -45.760  34.139  26.158  1.00  0.00     0.076 H 
ATOM     38  H   UNL     1     -45.597  33.912  27.879  1.00  0.00     0.076 H 
BRANCH  36  39
ATOM     39  C   UNL     1     -46.771  35.617  27.367  1.00  0.00     0.010 A 
ATOM     40  C   UNL     1     -48.111  35.915  27.569  1.00  0.00     0.034 A 
ATOM     41  C   UNL     1     -45.863  36.684  27.364  1.00  0.00    -0.028 A 
ATOM     42  N   UNL     1     -48.577  37.162  27.786  1.00  0.00    -0.262 NA
ATOM     43  H   UNL     1     -48.872  35.138  27.561  1.00  0.00     0.084 H 
ATOM     44  C   UNL     1     -46.306  37.996  27.550  1.00  0.00     0.066 A 
ATOM     45  H   UNL     1     -44.813  36.453  27.218  1.00  0.00     0.065 H 
ATOM     46  C   UNL     1     -47.670  38.172  27.769  1.00  0.00     0.051 A 
ATOM     47  H   UNL     1     -48.125  39.146  27.911  1.00  0.00     0.086 H 
BRANCH  44  48
ATOM     48  N   UNL     1     -45.416  39.113  27.502  1.00  0.00    -0.299 N 
ATOM     49  C   UNL     1     -45.383  40.061  26.497  1.00  0.00     0.017 A 
ATOM     50  C   UNL     1     -44.428  39.459  28.425  1.00  0.00     0.150 A 
ATOM     51  C   UNL     1     -44.406  41.006  26.760  1.00  0.00     0.009 A 
ATOM     52  H   UNL     1     -46.072  40.034  25.664  1.00  0.00     0.083 H 
ATOM     53  C   UNL     1     -43.777  40.609  27.979  1.00  0.00     0.067 A 
ATOM     54  N   UNL     1     -44.115  38.783  29.549  1.00  0.00    -0.218 NA
ATOM     55  C   UNL     1     -42.724  41.086  28.781  1.00  0.00     0.136 A 
ATOM     56  C   UNL     1     -43.110  39.337  30.233  1.00  0.00     0.120 A 
ATOM     57  N   UNL     1     -42.412  40.439  29.917  1.00  0.00    -0.219 NA
ATOM     58  H   UNL     1     -42.823  38.836  31.152  1.00  0.00     0.106 H 
BRANCH  51  59
ATOM     59  C   UNL     1     -44.114  42.201  25.912  1.00  0.00     0.074 C 
ATOM     60  H   UNL     1     -43.936  43.054  26.577  1.00  0.00     0.062 H 
ATOM     61  H   UNL     1     -43.210  42.094  25.308  1.00  0.00     0.062 H 
BRANCH  59  62
ATOM     62  O   UNL     1     -45.220  42.562  25.078  1.00  0.00    -0.380 OA
BRANCH  62  63
ATOM     63  C   UNL     1     -45.992  43.627  25.615  1.00  0.00     0.036 C 
ATOM     64  H   UNL     1     -46.057  44.416  24.861  1.00  0.00     0.053 H 
ATOM     65  H   UNL     1     -45.519  44.043  26.509  1.00  0.00     0.053 H 
ATOM     66  H   UNL     1     -47.006  43.287  25.848  1.00  0.00     0.053 H 
ENDBRANCH  62  63
ENDBRANCH  59  62
ENDBRANCH  51  59
BRANCH  55  67
ATOM     67  N   UNL     1     -41.933  42.188  28.474  1.00  0.00    -0.383 N 
ATOM     68  H   UNL     1     -41.170  41.969  27.849  1.00  0.00     0.158 HD
ATOM     69  H   UNL     1     -41.637  42.617  29.347  1.00  0.00     0.158 HD
ENDBRANCH  55  67
ENDBRANCH  44  48
ENDBRANCH  36  39
ENDBRANCH   1  36
TORSDOF 15
ENDMDL
MODEL 2
REMARK VINA RESULT:      -8.7      2.019      2.979
REMARK SMILES CCc1cc(NCCOC)c2c(F)cc(OCc3cncc(-n4cc(COC)c5c(N)ncnc54)c3)cc2n1
REMARK SMILES IDX 16 1 15 2 3 3 4 4 39 5 5 6 38 8 11 9 37 10 12 11 13 13 14 14
REMARK SMILES IDX 2 16 1 19 6 23 7 25 8 28 9 31 10 32 17 36 18 39 19 40 36 41
REMARK SMILES IDX 20 42 22 44 21 46 23 48 24 49 35 50 25 51 29 53 34 54 30 55
REMARK SMILES IDX 33 56 32 57 26 59 27 62 28 63 31 67
REMARK H PARENT 4 7 37 12 14 15 2 17 2 18 1 20 1 21 1 22 6 24 7 26 7 27 8 29
REMARK H PARENT 8 30 10 33 10 34 10 35 17 37 17 38 19 43 36 45 21 47 24 52
REMARK H PARENT 33 58 26 60 26 61 28 64 28 65 28 66 31 68 31 69
REMARK Flexibility Score: inf
ROOT
ATOM      1  O   UNL     1     -47.131  34.873  26.598  1.00  0.00    -0.489 OA
ENDROOT
BRANCH   1   2
ATOM      2  C   UNL     1     -47.438  33.768  25.851  1.00  0.00     0.124 A 
ATOM      3  C   UNL     1     -46.182  30.298  22.866  1.00  0.00     0.043 A 
ATOM      4  C   UNL     1     -47.464  29.772  22.809  1.00  0.00    -0.017 A 
ATOM      5  N   UNL     1     -45.870  31.366  23.631  1.00  0.00    -0.252 NA
ATOM      6  C   UNL     1     -48.482  30.345  23.574  1.00  0.00     0.048 A 
ATOM      7  H   UNL     1     -47.665  28.936  22.148  1.00  0.00     0.066 H 
ATOM      8  C   UNL     1     -46.841  31.955  24.346  1.00  0.00     0.079 A 
ATOM      9  C   UNL     1     -48.175  31.497  24.352  1.00  0.00     0.059 A 
ATOM     10  C   UNL     1     -46.493  33.067  25.104  1.00  0.00     0.007 A 
ATOM     11  C   UNL     1     -49.106  32.208  25.145  1.00  0.00     0.138 A 
ATOM     12  H   UNL     1     -45.453  33.380  25.104  1.00  0.00     0.069 H 
ATOM     13  F   UNL     1     -50.389  31.812  25.198  1.00  0.00    -0.206 F 
ATOM     14  C   UNL     1     -48.748  33.322  25.894  1.00  0.00     0.017 A 
ATOM     15  H   UNL     1     -49.496  33.838  26.486  1.00  0.00     0.069 H 
BRANCH   3  16
ATOM     16  C   UNL     1     -45.063  29.679  22.072  1.00  0.00    -0.013 C 
ATOM     17  H   UNL     1     -45.352  29.600  21.018  1.00  0.00     0.033 H 
ATOM     18  H   UNL     1     -44.189  30.340  22.105  1.00  0.00     0.033 H 
BRANCH  16  19
ATOM     19  C   UNL     1     -44.682  28.311  22.615  1.00  0.00    -0.060 C 
ATOM     20  H   UNL     1     -43.620  28.267  22.877  1.00  0.00     0.023 H 
ATOM     21  H   UNL     1     -45.262  28.086  23.516  1.00  0.00     0.023 H 
ATOM     22  H   UNL     1     -44.879  27.524  21.878  1.00  0.00     0.023 H 
ENDBRANCH  16  19
ENDBRANCH   3  16
BRANCH   6  23
ATOM     23  N   UNL     1     -49.805  29.851  23.487  1.00  0.00    -0.382 N 
ATOM     24  H   UNL     1     -50.107  29.514  24.409  1.00  0.00     0.160 HD
BRANCH  23  25
ATOM     25  C   UNL     1     -50.086  28.807  22.491  1.00  0.00     0.038 C 
ATOM     26  H   UNL     1     -50.989  29.114  21.956  1.00  0.00     0.051 H 
ATOM     27  H   UNL     1     -49.300  28.726  21.734  1.00  0.00     0.051 H 
BRANCH  25  28
ATOM     28  C   UNL     1     -50.328  27.440  23.153  1.00  0.00     0.063 C 
ATOM     29  H   UNL     1     -49.851  26.653  22.558  1.00  0.00     0.059 H 
ATOM     30  H   UNL     1     -51.400  27.212  23.187  1.00  0.00     0.059 H 
BRANCH  28  31
ATOM     31  O   UNL     1     -49.771  27.352  24.470  1.00  0.00    -0.383 OA
BRANCH  31  32
ATOM     32  C   UNL     1     -50.680  26.856  25.442  1.00  0.00     0.036 C 
ATOM     33  H   UNL     1     -51.493  27.579  25.548  1.00  0.00     0.053 H 
ATOM     34  H   UNL     1     -50.186  26.746  26.412  1.00  0.00     0.053 H 
ATOM     35  H   UNL     1     -51.110  25.903  25.124  1.00  0.00     0.053 H 
ENDBRANCH  31  32
ENDBRANCH  28  31
ENDBRANCH  25  28
ENDBRANCH  23  25
ENDBRANCH   6  23
ENDBRANCH   1   2
BRANCH   1  36
ATOM     36  C   UNL     1     -46.201  34.623  27.662  1.00  0.00     0.115 C 
ATOM     37  H   UNL     1     -45.264  34.178  27.307  1.00  0.00     0.076 H 
ATOM     38  H   UNL     1     -46.656  33.860  28.307  1.00  0.00     0.076 H 
BRANCH  36  39
ATOM     39  C   UNL     1     -45.945  35.864  28.474  1.00  0.00     0.010 A 
ATOM     40  C   UNL     1     -46.233  35.911  29.830  1.00  0.00     0.034 A 
ATOM     41  C   UNL     1     -45.457  37.032  27.873  1.00  0.00    -0.028 A 
ATOM     42  N   UNL     1     -46.045  37.004  30.599  1.00  0.00    -0.262 NA
ATOM     43  H   UNL     1     -46.635  35.048  30.355  1.00  0.00     0.084 H 
ATOM     44  C   UNL     1     -45.281  38.197  28.624  1.00  0.00     0.066 A 
ATOM     45  H   UNL     1     -45.221  36.995  26.815  1.00  0.00     0.065 H 
ATOM     46  C   UNL     1     -45.579  38.120  29.981  1.00  0.00     0.051 A 
ATOM     47  H   UNL     1     -45.493  38.965  30.655  1.00  0.00     0.086 H 
BRANCH  44  48
ATOM     48  N   UNL     1     -44.834  39.421  28.034  1.00  0.00    -0.299 N 
ATOM     49  C   UNL     1     -45.367  39.995  26.895  1.00  0.00     0.017 A 
ATOM     50  C   UNL     1     -43.801  40.252  28.469  1.00  0.00     0.150 A 
ATOM     51  C   UNL     1     -44.705  41.175  26.600  1.00  0.00     0.009 A 
ATOM     52  H   UNL     1     -46.204  39.555  26.372  1.00  0.00     0.083 H 
ATOM     53  C   UNL     1     -43.687  41.327  27.589  1.00  0.00     0.067 A 
ATOM     54  N   UNL     1     -43.008  40.045  29.540  1.00  0.00    -0.218 NA
ATOM     55  C   UNL     1     -42.668  42.258  27.864  1.00  0.00     0.136 A 
ATOM     56  C   UNL     1     -42.088  40.999  29.705  1.00  0.00     0.120 A 
ATOM     57  N   UNL     1     -41.882  42.081  28.939  1.00  0.00    -0.219 NA
ATOM     58  H   UNL     1     -41.428  40.885  30.559  1.00  0.00     0.106 H 
BRANCH  51  59
ATOM     59  C   UNL     1     -45.039  42.086  25.463  1.00  0.00     0.074 C 
ATOM     60  H   UNL     1     -45.853  41.627  24.888  1.00  0.00     0.062 H 
ATOM     61  H   UNL     1     -45.409  43.063  25.784  1.00  0.00     0.062 H 
BRANCH  59  62
ATOM     62  O   UNL     1     -43.945  42.250  24.555  1.00  0.00    -0.380 OA
BRANCH  62  63
ATOM     63  C   UNL     1     -44.129  43.336  23.659  1.00  0.00     0.036 C 
ATOM     64  H   UNL     1     -43.161  43.818  23.501  1.00  0.00     0.053 H 
ATOM     65  H   UNL     1     -44.818  44.076  24.074  1.00  0.00     0.053 H 
ATOM     66  H   UNL     1     -44.499  42.978  22.693  1.00  0.00     0.053 H 
ENDBRANCH  62  63
ENDBRANCH  59  62
ENDBRANCH  51  59
BRANCH  55  67
ATOM     67  N   UNL     1     -42.376  43.365  27.074  1.00  0.00    -0.383 N 
ATOM     68  H   UNL     1     -43.158  43.670  26.511  1.00  0.00     0.158 HD
ATOM     69  H   UNL     1     -41.541  43.155  26.533  1.00  0.00     0.158 HD
ENDBRANCH  55  67
ENDBRANCH  44  48
ENDBRANCH  36  39
ENDBRANCH   1  36
TORSDOF 15
ENDMDL
MODEL 3
REMARK VINA RESULT:      -8.4      1.762      3.325
REMARK SMILES CCc1cc(NCCOC)c2c(F)cc(OCc3cncc(-n4cc(COC)c5c(N)ncnc54)c3)cc2n1
REMARK SMILES IDX 16 1 15 2 3 3 4 4 39 5 5 6 38 8 11 9 37 10 12 11 13 13 14 14
REMARK SMILES IDX 2 16 1 19 6 23 7 25 8 28 9 31 10 32 17 36 18 39 19 40 36 41
REMARK SMILES IDX 20 42 22 44 21 46 23 48 24 49 35 50 25 51 29 53 34 54 30 55
REMARK SMILES IDX 33 56 32 57 26 59 27 62 28 63 31 67
REMARK H PARENT 4 7 37 12 14 15 2 17 2 18 1 20 1 21 1 22 6 24 7 26 7 27 8 29
REMARK H PARENT 8 30 10 33 10 34 10 35 17 37 17 38 19 43 36 45 21 47 24 52
REMARK H PARENT 33 58 26 60 26 61 28 64 28 65 28 66 31 68 31 69
REMARK Flexibility Score: inf
ROOT
ATOM      1  O   UNL     1     -46.098  33.989  25.738  1.00  0.00    -0.489 OA
ENDROOT
BRANCH   1   2
ATOM      2  C   UNL     1     -46.771  32.876  25.311  1.00  0.00     0.124 A 
ATOM      3  C   UNL     1     -48.478  30.141  21.828  1.00  0.00     0.043 A 
ATOM      4  C   UNL     1     -49.033  29.224  22.709  1.00  0.00    -0.017 A 
ATOM      5  N   UNL     1     -47.782  31.219  22.248  1.00  0.00    -0.252 NA
ATOM      6  C   UNL     1     -48.865  29.398  24.085  1.00  0.00     0.048 A 
ATOM      7  H   UNL     1     -49.614  28.396  22.317  1.00  0.00     0.066 H 
ATOM      8  C   UNL     1     -47.640  31.425  23.566  1.00  0.00     0.079 A 
ATOM      9  C   UNL     1     -48.170  30.553  24.540  1.00  0.00     0.059 A 
ATOM     10  C   UNL     1     -46.940  32.557  23.965  1.00  0.00     0.007 A 
ATOM     11  C   UNL     1     -47.955  30.884  25.898  1.00  0.00     0.138 A 
ATOM     12  H   UNL     1     -46.518  33.196  23.194  1.00  0.00     0.069 H 
ATOM     13  F   UNL     1     -48.427  30.085  26.871  1.00  0.00    -0.206 F 
ATOM     14  C   UNL     1     -47.258  32.022  26.286  1.00  0.00     0.017 A 
ATOM     15  H   UNL     1     -47.119  32.237  27.340  1.00  0.00     0.069 H 
BRANCH   3  16
ATOM     16  C   UNL     1     -48.621  29.959  20.341  1.00  0.00    -0.013 C 
ATOM     17  H   UNL     1     -47.947  29.167  19.995  1.00  0.00     0.033 H 
ATOM     18  H   UNL     1     -49.639  29.621  20.115  1.00  0.00     0.033 H 
BRANCH  16  19
ATOM     19  C   UNL     1     -48.340  31.251  19.590  1.00  0.00    -0.060 C 
ATOM     20  H   UNL     1     -47.653  31.895  20.149  1.00  0.00     0.023 H 
ATOM     21  H   UNL     1     -47.886  31.034  18.618  1.00  0.00     0.023 H 
ATOM     22  H   UNL     1     -49.263  31.816  19.416  1.00  0.00     0.023 H 
ENDBRANCH  16  19
ENDBRANCH   3  16
BRANCH   6  23
ATOM     23  N   UNL     1     -49.468  28.499  24.996  1.00  0.00    -0.382 N 
ATOM     24  H   UNL     1     -49.243  28.781  25.957  1.00  0.00     0.160 HD
BRANCH  23  25
ATOM     25  C   UNL     1     -49.174  27.066  24.847  1.00  0.00     0.038 C 
ATOM     26  H   UNL     1     -49.730  26.719  23.970  1.00  0.00     0.051 H 
ATOM     27  H   UNL     1     -48.119  26.874  24.630  1.00  0.00     0.051 H 
BRANCH  25  28
ATOM     28  C   UNL     1     -49.619  26.263  26.081  1.00  0.00     0.063 C 
ATOM     29  H   UNL     1     -50.277  25.444  25.769  1.00  0.00     0.059 H 
ATOM     30  H   UNL     1     -50.195  26.896  26.766  1.00  0.00     0.059 H 
BRANCH  28  31
ATOM     31  O   UNL     1     -48.522  25.663  26.780  1.00  0.00    -0.383 OA
BRANCH  31  32
ATOM     32  C   UNL     1     -47.388  25.421  25.960  1.00  0.00     0.036 C 
ATOM     33  H   UNL     1     -47.537  25.941  25.010  1.00  0.00     0.053 H 
ATOM     34  H   UNL     1     -47.278  24.351  25.756  1.00  0.00     0.053 H 
ATOM     35  H   UNL     1     -46.480  25.814  26.424  1.00  0.00     0.053 H 
ENDBRANCH  31  32
ENDBRANCH  28  31
ENDBRANCH  25  28
ENDBRANCH  23  25
ENDBRANCH   6  23
ENDBRANCH   1   2
BRANCH   1  36
ATOM     36  C   UNL     1     -46.244  34.262  27.139  1.00  0.00     0.115 C 
ATOM     37  H   UNL     1     -45.331  34.049  27.708  1.00  0.00     0.076 H 
ATOM     38  H   UNL     1     -46.994  33.558  27.522  1.00  0.00     0.076 H 
BRANCH  36  39
ATOM     39  C   UNL     1     -46.723  35.668  27.380  1.00  0.00     0.010 A 
ATOM     40  C   UNL     1     -48.071  35.956  27.529  1.00  0.00     0.034 A 
ATOM     41  C   UNL     1     -45.823  36.743  27.407  1.00  0.00    -0.028 A 
ATOM     42  N   UNL     1     -48.555  37.201  27.723  1.00  0.00    -0.262 NA
ATOM     43  H   UNL     1     -48.825  35.173  27.496  1.00  0.00     0.084 H 
ATOM     44  C   UNL     1     -46.284  38.052  27.570  1.00  0.00     0.066 A 
ATOM     45  H   UNL     1     -44.766  36.520  27.301  1.00  0.00     0.065 H 
ATOM     46  C   UNL     1     -47.656  38.218  27.735  1.00  0.00     0.051 A 
ATOM     47  H   UNL     1     -48.124  39.189  27.855  1.00  0.00     0.086 H 
BRANCH  44  48
ATOM     48  N   UNL     1     -45.401  39.176  27.550  1.00  0.00    -0.299 N 
ATOM     49  C   UNL     1     -45.389  40.161  26.580  1.00  0.00     0.017 A 
ATOM     50  C   UNL     1     -44.401  39.494  28.469  1.00  0.00     0.150 A 
ATOM     51  C   UNL     1     -44.414  41.102  26.865  1.00  0.00     0.009 A 
ATOM     52  H   UNL     1     -46.091  40.161  25.758  1.00  0.00     0.083 H 
ATOM     53  C   UNL     1     -43.764  40.663  28.057  1.00  0.00     0.067 A 
ATOM     54  N   UNL     1     -44.066  38.778  29.563  1.00  0.00    -0.218 NA
ATOM     55  C   UNL     1     -42.702  41.117  28.861  1.00  0.00     0.136 A 
ATOM     56  C   UNL     1     -43.055  39.313  30.252  1.00  0.00     0.120 A 
ATOM     57  N   UNL     1     -42.368  40.430  29.967  1.00  0.00    -0.219 NA
ATOM     58  H   UNL     1     -42.750  38.780  31.147  1.00  0.00     0.106 H 
BRANCH  51  59
ATOM     59  C   UNL     1     -44.143  42.330  26.057  1.00  0.00     0.074 C 
ATOM     60  H   UNL     1     -44.709  42.252  25.120  1.00  0.00     0.062 H 
ATOM     61  H   UNL     1     -44.483  43.250  26.539  1.00  0.00     0.062 H 
BRANCH  59  62
ATOM     62  O   UNL     1     -42.765  42.449  25.689  1.00  0.00    -0.380 OA
BRANCH  62  63
ATOM     63  C   UNL     1     -42.410  43.767  25.298  1.00  0.00     0.036 C 
ATOM     64  H   UNL     1     -43.110  44.463  25.765  1.00  0.00     0.053 H 
ATOM     65  H   UNL     1     -42.477  43.887  24.213  1.00  0.00     0.053 H 
ATOM     66  H   UNL     1     -41.399  44.010  25.641  1.00  0.00     0.053 H 
ENDBRANCH  62  63
ENDBRANCH  59  62
ENDBRANCH  51  59
BRANCH  55  67
ATOM     67  N   UNL     1     -41.923  42.236  28.584  1.00  0.00    -0.383 N 
ATOM     68  H   UNL     1     -41.948  42.930  29.318  1.00  0.00     0.158 HD
ATOM     69  H   UNL     1     -42.198  42.593  27.673  1.00  0.00     0.158 HD
ENDBRANCH  55  67
ENDBRANCH  44  48
ENDBRANCH  36  39
ENDBRANCH   1  36
TORSDOF 15
ENDMDL
MODEL 4
REMARK VINA RESULT:      -8.3      2.131      2.929
REMARK SMILES CCc1cc(NCCOC)c2c(F)cc(OCc3cncc(-n4cc(COC)c5c(N)ncnc54)c3)cc2n1
REMARK SMILES IDX 16 1 15 2 3 3 4 4 39 5 5 6 38 8 11 9 37 10 12 11 13 13 14 14
REMARK SMILES IDX 2 16 1 19 6 23 7 25 8 28 9 31 10 32 17 36 18 39 19 40 36 41
REMARK SMILES IDX 20 42 22 44 21 46 23 48 24 49 35 50 25 51 29 53 34 54 30 55
REMARK SMILES IDX 33 56 32 57 26 59 27 62 28 63 31 67
REMARK H PARENT 4 7 37 12 14 15 2 17 2 18 1 20 1 21 1 22 6 24 7 26 7 27 8 29
REMARK H PARENT 8 30 10 33 10 34 10 35 17 37 17 38 19 43 36 45 21 47 24 52
REMARK H PARENT 33 58 26 60 26 61 28 64 28 65 28 66 31 68 31 69
REMARK Flexibility Score: inf
ROOT
ATOM      1  O   UNL     1     -47.812  32.891  24.548  1.00  0.00    -0.489 OA
ENDROOT
BRANCH   1   2
ATOM      2  C   UNL     1     -48.397  31.654  24.490  1.00  0.00     0.124 A 
ATOM      3  C   UNL     1     -48.200  26.942  25.021  1.00  0.00     0.043 A 
ATOM      4  C   UNL     1     -49.511  26.759  24.607  1.00  0.00    -0.017 A 
ATOM      5  N   UNL     1     -47.634  28.165  25.115  1.00  0.00    -0.252 NA
ATOM      6  C   UNL     1     -50.296  27.868  24.284  1.00  0.00     0.048 A 
ATOM      7  H   UNL     1     -49.902  25.752  24.515  1.00  0.00     0.066 H 
ATOM      8  C   UNL     1     -48.358  29.241  24.774  1.00  0.00     0.079 A 
ATOM      9  C   UNL     1     -49.697  29.158  24.338  1.00  0.00     0.059 A 
ATOM     10  C   UNL     1     -47.738  30.483  24.857  1.00  0.00     0.007 A 
ATOM     11  C   UNL     1     -50.351  30.367  24.003  1.00  0.00     0.138 A 
ATOM     12  H   UNL     1     -46.717  30.520  25.223  1.00  0.00     0.069 H 
ATOM     13  F   UNL     1     -51.630  30.352  23.591  1.00  0.00    -0.206 F 
ATOM     14  C   UNL     1     -49.720  31.602  24.085  1.00  0.00     0.017 A 
ATOM     15  H   UNL     1     -50.259  32.504  23.815  1.00  0.00     0.069 H 
BRANCH   3  16
ATOM     16  C   UNL     1     -47.344  25.765  25.403  1.00  0.00    -0.013 C 
ATOM     17  H   UNL     1     -47.318  25.040  24.581  1.00  0.00     0.033 H 
ATOM     18  H   UNL     1     -46.312  26.102  25.553  1.00  0.00     0.033 H 
BRANCH  16  19
ATOM     19  C   UNL     1     -47.846  25.097  26.674  1.00  0.00    -0.060 C 
ATOM     20  H   UNL     1     -47.910  25.812  27.501  1.00  0.00     0.023 H 
ATOM     21  H   UNL     1     -48.844  24.677  26.513  1.00  0.00     0.023 H 
ATOM     22  H   UNL     1     -47.180  24.284  26.984  1.00  0.00     0.023 H 
ENDBRANCH  16  19
ENDBRANCH   3  16
BRANCH   6  23
ATOM     23  N   UNL     1     -51.618  27.693  23.811  1.00  0.00    -0.382 N 
ATOM     24  H   UNL     1     -52.208  27.326  24.568  1.00  0.00     0.160 HD
BRANCH  23  25
ATOM     25  C   UNL     1     -51.818  26.860  22.616  1.00  0.00     0.038 C 
ATOM     26  H   UNL     1     -51.112  26.027  22.689  1.00  0.00     0.051 H 
ATOM     27  H   UNL     1     -52.814  26.408  22.581  1.00  0.00     0.051 H 
BRANCH  25  28
ATOM     28  C   UNL     1     -51.544  27.647  21.323  1.00  0.00     0.063 C 
ATOM     29  H   UNL     1     -50.867  28.482  21.537  1.00  0.00     0.059 H 
ATOM     30  H   UNL     1     -52.472  28.077  20.929  1.00  0.00     0.059 H 
BRANCH  28  31
ATOM     31  O   UNL     1     -50.909  26.854  20.313  1.00  0.00    -0.383 OA
BRANCH  31  32
ATOM     32  C   UNL     1     -49.833  27.514  19.663  1.00  0.00     0.036 C 
ATOM     33  H   UNL     1     -48.900  27.181  20.125  1.00  0.00     0.053 H 
ATOM     34  H   UNL     1     -49.912  28.599  19.788  1.00  0.00     0.053 H 
ATOM     35  H   UNL     1     -49.799  27.255  18.602  1.00  0.00     0.053 H 
ENDBRANCH  31  32
ENDBRANCH  28  31
ENDBRANCH  25  28
ENDBRANCH  23  25
ENDBRANCH   6  23
ENDBRANCH   1   2
BRANCH   1  36
ATOM     36  C   UNL     1     -47.136  33.162  25.785  1.00  0.00     0.115 C 
ATOM     37  H   UNL     1     -46.044  33.163  25.678  1.00  0.00     0.076 H 
ATOM     38  H   UNL     1     -47.359  32.325  26.458  1.00  0.00     0.076 H 
BRANCH  36  39
ATOM     39  C   UNL     1     -47.625  34.440  26.412  1.00  0.00     0.010 A 
ATOM     40  C   UNL     1     -48.951  34.598  26.788  1.00  0.00     0.034 A 
ATOM     41  C   UNL     1     -46.766  35.533  26.587  1.00  0.00    -0.028 A 
ATOM     42  N   UNL     1     -49.446  35.729  27.331  1.00  0.00    -0.262 NA
ATOM     43  H   UNL     1     -49.676  33.798  26.659  1.00  0.00     0.084 H 
ATOM     44  C   UNL     1     -47.245  36.736  27.114  1.00  0.00     0.066 A 
ATOM     45  H   UNL     1     -45.726  35.409  26.305  1.00  0.00     0.065 H 
ATOM     46  C   UNL     1     -48.587  36.771  27.479  1.00  0.00     0.051 A 
ATOM     47  H   UNL     1     -49.068  37.655  27.883  1.00  0.00     0.086 H 
BRANCH  44  48
ATOM     48  N   UNL     1     -46.410  37.888  27.259  1.00  0.00    -0.299 N 
ATOM     49  C   UNL     1     -46.341  38.937  26.362  1.00  0.00     0.017 A 
ATOM     50  C   UNL     1     -45.521  38.174  28.295  1.00  0.00     0.150 A 
ATOM     51  C   UNL     1     -45.438  39.888  26.806  1.00  0.00     0.009 A 
ATOM     52  H   UNL     1     -46.956  38.970  25.473  1.00  0.00     0.083 H 
ATOM     53  C   UNL     1     -44.893  39.390  28.028  1.00  0.00     0.067 A 
ATOM     54  N   UNL     1     -45.270  37.397  29.368  1.00  0.00    -0.218 NA
ATOM     55  C   UNL     1     -43.936  39.822  28.965  1.00  0.00     0.136 A 
ATOM     56  C   UNL     1     -44.355  37.916  30.191  1.00  0.00     0.120 A 
ATOM     57  N   UNL     1     -43.688  39.072  30.052  1.00  0.00    -0.219 NA
ATOM     58  H   UNL     1     -44.121  37.333  31.076  1.00  0.00     0.106 H 
BRANCH  51  59
ATOM     59  C   UNL     1     -45.136  41.177  26.112  1.00  0.00     0.074 C 
ATOM     60  H   UNL     1     -45.504  41.101  25.081  1.00  0.00     0.062 H 
ATOM     61  H   UNL     1     -45.647  42.037  26.553  1.00  0.00     0.062 H 
BRANCH  59  62
ATOM     62  O   UNL     1     -43.731  41.433  26.022  1.00  0.00    -0.380 OA
BRANCH  62  63
ATOM     63  C   UNL     1     -43.435  42.676  25.400  1.00  0.00     0.036 C 
ATOM     64  H   UNL     1     -43.659  42.587  24.334  1.00  0.00     0.053 H 
ATOM     65  H   UNL     1     -42.377  42.928  25.510  1.00  0.00     0.053 H 
ATOM     66  H   UNL     1     -44.058  43.472  25.819  1.00  0.00     0.053 H 
ENDBRANCH  62  63
ENDBRANCH  59  62
ENDBRANCH  51  59
BRANCH  55  67
ATOM     67  N   UNL     1     -43.179  40.983  28.842  1.00  0.00    -0.383 N 
ATOM     68  H   UNL     1     -42.462  41.066  29.549  1.00  0.00     0.158 HD
ATOM     69  H   UNL     1     -43.817  41.774  28.811  1.00  0.00     0.158 HD
ENDBRANCH  55  67
ENDBRANCH  44  48
ENDBRANCH  36  39
ENDBRANCH   1  36
TORSDOF 15
ENDMDL
MODEL 5
REMARK VINA RESULT:      -8.1      2.985     11.525
REMARK SMILES CCc1cc(NCCOC)c2c(F)cc(OCc3cncc(-n4cc(COC)c5c(N)ncnc54)c3)cc2n1
REMARK SMILES IDX 16 1 15 2 3 3 4 4 39 5 5 6 38 8 11 9 37 10 12 11 13 13 14 14
REMARK SMILES IDX 2 16 1 19 6 23 7 25 8 28 9 31 10 32 17 36 18 39 19 40 36 41
REMARK SMILES IDX 20 42 22 44 21 46 23 48 24 49 35 50 25 51 29 53 34 54 30 55
REMARK SMILES IDX 33 56 32 57 26 59 27 62 28 63 31 67
REMARK H PARENT 4 7 37 12 14 15 2 17 2 18 1 20 1 21 1 22 6 24 7 26 7 27 8 29
REMARK H PARENT 8 30 10 33 10 34 10 35 17 37 17 38 19 43 36 45 21 47 24 52
REMARK H PARENT 33 58 26 60 26 61 28 64 28 65 28 66 31 68 31 69
REMARK Flexibility Score: inf
ROOT
ATOM      1  O   UNL     1     -47.266  37.573  28.108  1.00  0.00    -0.489 OA
ENDROOT
BRANCH   1   2
ATOM      2  C   UNL     1     -46.760  38.738  27.595  1.00  0.00     0.124 A 
ATOM      3  C   UNL     1     -47.358  43.129  25.898  1.00  0.00     0.043 A 
ATOM      4  C   UNL     1     -46.002  43.314  25.671  1.00  0.00    -0.017 A 
ATOM      5  N   UNL     1     -47.855  41.996  26.438  1.00  0.00    -0.252 NA
ATOM      6  C   UNL     1     -45.099  42.307  26.019  1.00  0.00     0.048 A 
ATOM      7  H   UNL     1     -45.664  44.230  25.200  1.00  0.00     0.066 H 
ATOM      8  C   UNL     1     -47.008  41.001  26.747  1.00  0.00     0.079 A 
ATOM      9  C   UNL     1     -45.615  41.091  26.550  1.00  0.00     0.059 A 
ATOM     10  C   UNL     1     -47.553  39.838  27.277  1.00  0.00     0.007 A 
ATOM     11  C   UNL     1     -44.830  39.971  26.912  1.00  0.00     0.138 A 
ATOM     12  H   UNL     1     -48.626  39.806  27.445  1.00  0.00     0.069 H 
ATOM     13  F   UNL     1     -43.495  40.003  26.758  1.00  0.00    -0.206 F 
ATOM     14  C   UNL     1     -45.386  38.811  27.437  1.00  0.00     0.017 A 
ATOM     15  H   UNL     1     -44.746  37.976  27.699  1.00  0.00     0.069 H 
BRANCH   3  16
ATOM     16  C   UNL     1     -48.348  44.211  25.557  1.00  0.00    -0.013 C 
ATOM     17  H   UNL     1     -49.337  43.771  25.385  1.00  0.00     0.033 H 
ATOM     18  H   UNL     1     -48.453  44.886  26.414  1.00  0.00     0.033 H 
BRANCH  16  19
ATOM     19  C   UNL     1     -47.908  45.007  24.338  1.00  0.00    -0.060 C 
ATOM     20  H   UNL     1     -47.877  44.378  23.442  1.00  0.00     0.023 H 
ATOM     21  H   UNL     1     -48.605  45.829  24.150  1.00  0.00     0.023 H 
ATOM     22  H   UNL     1     -46.909  45.434  24.483  1.00  0.00     0.023 H 
ENDBRANCH  16  19
ENDBRANCH   3  16
BRANCH   6  23
ATOM     23  N   UNL     1     -43.719  42.462  25.747  1.00  0.00    -0.382 N 
ATOM     24  H   UNL     1     -43.253  41.549  25.806  1.00  0.00     0.160 HD
BRANCH  23  25
ATOM     25  C   UNL     1     -42.961  43.428  26.554  1.00  0.00     0.038 C 
ATOM     26  H   UNL     1     -41.953  43.472  26.132  1.00  0.00     0.051 H 
ATOM     27  H   UNL     1     -43.362  44.444  26.480  1.00  0.00     0.051 H 
BRANCH  25  28
ATOM     28  C   UNL     1     -42.877  42.996  28.028  1.00  0.00     0.063 C 
ATOM     29  H   UNL     1     -43.798  42.473  28.310  1.00  0.00     0.059 H 
ATOM     30  H   UNL     1     -42.790  43.871  28.682  1.00  0.00     0.059 H 
BRANCH  28  31
ATOM     31  O   UNL     1     -41.797  42.090  28.282  1.00  0.00    -0.383 OA
BRANCH  31  32
ATOM     32  C   UNL     1     -41.946  41.348  29.484  1.00  0.00     0.036 C 
ATOM     33  H   UNL     1     -41.063  41.524  30.104  1.00  0.00     0.053 H 
ATOM     34  H   UNL     1     -42.012  40.277  29.271  1.00  0.00     0.053 H 
ATOM     35  H   UNL     1     -42.825  41.680  30.041  1.00  0.00     0.053 H 
ENDBRANCH  31  32
ENDBRANCH  28  31
ENDBRANCH  25  28
ENDBRANCH  23  25
ENDBRANCH   6  23
ENDBRANCH   1   2
BRANCH   1  36
ATOM     36  C   UNL     1     -47.938  36.751  27.143  1.00  0.00     0.115 C 
ATOM     37  H   UNL     1     -47.911  37.177  26.133  1.00  0.00     0.076 H 
ATOM     38  H   UNL     1     -48.999  36.738  27.422  1.00  0.00     0.076 H 
BRANCH  36  39
ATOM     39  C   UNL     1     -47.410  35.341  27.157  1.00  0.00     0.010 A 
ATOM     40  C   UNL     1     -46.665  34.861  28.224  1.00  0.00     0.034 A 
ATOM     41  C   UNL     1     -47.609  34.485  26.067  1.00  0.00    -0.028 A 
ATOM     42  N   UNL     1     -46.148  33.615  28.276  1.00  0.00    -0.262 NA
ATOM     43  H   UNL     1     -46.453  35.479  29.092  1.00  0.00     0.084 H 
ATOM     44  C   UNL     1     -47.063  33.199  26.063  1.00  0.00     0.066 A 
ATOM     45  H   UNL     1     -48.202  34.854  25.236  1.00  0.00     0.065 H 
ATOM     46  C   UNL     1     -46.354  32.815  27.198  1.00  0.00     0.051 A 
ATOM     47  H   UNL     1     -45.876  31.847  27.298  1.00  0.00     0.086 H 
BRANCH  44  48
ATOM     48  N   UNL     1     -47.202  32.316  24.947  1.00  0.00    -0.299 N 
ATOM     49  C   UNL     1     -46.156  31.822  24.189  1.00  0.00     0.017 A 
ATOM     50  C   UNL     1     -48.380  31.799  24.408  1.00  0.00     0.150 A 
ATOM     51  C   UNL     1     -46.639  30.995  23.189  1.00  0.00     0.009 A 
ATOM     52  H   UNL     1     -45.126  32.056  24.417  1.00  0.00     0.083 H 
ATOM     53  C   UNL     1     -48.061  31.000  23.310  1.00  0.00     0.067 A 
ATOM     54  N   UNL     1     -49.632  32.049  24.841  1.00  0.00    -0.218 NA
ATOM     55  C   UNL     1     -49.142  30.415  22.624  1.00  0.00     0.136 A 
ATOM     56  C   UNL     1     -50.572  31.430  24.120  1.00  0.00     0.120 A 
ATOM     57  N   UNL     1     -50.396  30.635  23.054  1.00  0.00    -0.219 NA
ATOM     58  H   UNL     1     -51.599  31.592  24.432  1.00  0.00     0.106 H 
BRANCH  51  59
ATOM     59  C   UNL     1     -45.793  30.252  22.206  1.00  0.00     0.074 C 
ATOM     60  H   UNL     1     -45.987  30.669  21.209  1.00  0.00     0.062 H 
ATOM     61  H   UNL     1     -44.721  30.370  22.379  1.00  0.00     0.062 H 
BRANCH  59  62
ATOM     62  O   UNL     1     -46.130  28.863  22.136  1.00  0.00    -0.380 OA
BRANCH  62  63
ATOM     63  C   UNL     1     -46.043  28.210  23.394  1.00  0.00     0.036 C 
ATOM     64  H   UNL     1     -45.247  27.463  23.339  1.00  0.00     0.053 H 
ATOM     65  H   UNL     1     -46.978  27.699  23.638  1.00  0.00     0.053 H 
ATOM     66  H   UNL     1     -45.790  28.927  24.182  1.00  0.00     0.053 H 
ENDBRANCH  62  63
ENDBRANCH  59  62
ENDBRANCH  51  59
BRANCH  55  67
ATOM     67  N   UNL     1     -49.020  29.628  21.484  1.00  0.00    -0.383 N 
ATOM     68  H   UNL     1     -48.605  28.725  21.666  1.00  0.00     0.158 HD
ATOM     69  H   UNL     1     -48.528  30.169  20.778  1.00  0.00     0.158 HD
ENDBRANCH  55  67
ENDBRANCH  44  48
ENDBRANCH  36  39
ENDBRANCH   1  36
TORSDOF 15
ENDMDL
MODEL 6
REMARK VINA RESULT:      -8.0      2.934     11.556
REMARK SMILES CCc1cc(NCCOC)c2c(F)cc(OCc3cncc(-n4cc(COC)c5c(N)ncnc54)c3)cc2n1
REMARK SMILES IDX 16 1 15 2 3 3 4 4 39 5 5 6 38 8 11 9 37 10 12 11 13 13 14 14
REMARK SMILES IDX 2 16 1 19 6 23 7 25 8 28 9 31 10 32 17 36 18 39 19 40 36 41
REMARK SMILES IDX 20 42 22 44 21 46 23 48 24 49 35 50 25 51 29 53 34 54 30 55
REMARK SMILES IDX 33 56 32 57 26 59 27 62 28 63 31 67
REMARK H PARENT 4 7 37 12 14 15 2 17 2 18 1 20 1 21 1 22 6 24 7 26 7 27 8 29
REMARK H PARENT 8 30 10 33 10 34 10 35 17 37 17 38 19 43 36 45 21 47 24 52
REMARK H PARENT 33 58 26 60 26 61 28 64 28 65 28 66 31 68 31 69
REMARK Flexibility Score: inf
ROOT
ATOM      1  O   UNL     1     -46.326  37.412  27.712  1.00  0.00    -0.489 OA
ENDROOT
BRANCH   1   2
ATOM      2  C   UNL     1     -46.005  38.695  27.359  1.00  0.00     0.124 A 
ATOM      3  C   UNL     1     -47.267  43.049  25.953  1.00  0.00     0.043 A 
ATOM      4  C   UNL     1     -45.957  43.503  25.911  1.00  0.00    -0.017 A 
ATOM      5  N   UNL     1     -47.587  41.795  26.337  1.00  0.00    -0.252 NA
ATOM      6  C   UNL     1     -44.917  42.651  26.288  1.00  0.00     0.048 A 
ATOM      7  H   UNL     1     -45.756  44.510  25.559  1.00  0.00     0.066 H 
ATOM      8  C   UNL     1     -46.600  40.948  26.668  1.00  0.00     0.079 A 
ATOM      9  C   UNL     1     -45.238  41.314  26.653  1.00  0.00     0.059 A 
ATOM     10  C   UNL     1     -46.960  39.656  27.034  1.00  0.00     0.007 A 
ATOM     11  C   UNL     1     -44.293  40.327  27.020  1.00  0.00     0.138 A 
ATOM     12  H   UNL     1     -48.018  39.410  27.064  1.00  0.00     0.069 H 
ATOM     13  F   UNL     1     -42.981  40.620  27.035  1.00  0.00    -0.206 F 
ATOM     14  C   UNL     1     -44.664  39.037  27.379  1.00  0.00     0.017 A 
ATOM     15  H   UNL     1     -43.904  38.312  27.651  1.00  0.00     0.069 H 
BRANCH   3  16
ATOM     16  C   UNL     1     -48.407  43.958  25.579  1.00  0.00    -0.013 C 
ATOM     17  H   UNL     1     -48.045  44.762  24.927  1.00  0.00     0.033 H 
ATOM     18  H   UNL     1     -49.143  43.393  24.996  1.00  0.00     0.033 H 
BRANCH  16  19
ATOM     19  C   UNL     1     -49.080  44.545  26.809  1.00  0.00    -0.060 C 
ATOM     20  H   UNL     1     -48.470  44.398  27.707  1.00  0.00     0.023 H 
ATOM     21  H   UNL     1     -49.238  45.620  26.680  1.00  0.00     0.023 H 
ATOM     22  H   UNL     1     -50.055  44.077  26.988  1.00  0.00     0.023 H 
ENDBRANCH  16  19
ENDBRANCH   3  16
BRANCH   6  23
ATOM     23  N   UNL     1     -43.572  43.085  26.201  1.00  0.00    -0.382 N 
ATOM     24  H   UNL     1     -43.160  43.118  27.141  1.00  0.00     0.160 HD
BRANCH  23  25
ATOM     25  C   UNL     1     -43.303  44.363  25.527  1.00  0.00     0.038 C 
ATOM     26  H   UNL     1     -44.236  44.935  25.548  1.00  0.00     0.051 H 
ATOM     27  H   UNL     1     -42.565  44.971  26.058  1.00  0.00     0.051 H 
BRANCH  25  28
ATOM     28  C   UNL     1     -42.868  44.154  24.066  1.00  0.00     0.063 C 
ATOM     29  H   UNL     1     -43.457  43.345  23.619  1.00  0.00     0.059 H 
ATOM     30  H   UNL     1     -41.816  43.852  24.016  1.00  0.00     0.059 H 
BRANCH  28  31
ATOM     31  O   UNL     1     -43.080  45.313  23.251  1.00  0.00    -0.383 OA
BRANCH  31  32
ATOM     32  C   UNL     1     -43.318  45.012  21.884  1.00  0.00     0.036 C 
ATOM     33  H   UNL     1     -44.257  44.457  21.816  1.00  0.00     0.053 H 
ATOM     34  H   UNL     1     -42.516  44.387  21.480  1.00  0.00     0.053 H 
ATOM     35  H   UNL     1     -43.420  45.927  21.295  1.00  0.00     0.053 H 
ENDBRANCH  31  32
ENDBRANCH  28  31
ENDBRANCH  25  28
ENDBRANCH  23  25
ENDBRANCH   6  23
ENDBRANCH   1   2
BRANCH   1  36
ATOM     36  C   UNL     1     -47.195  36.747  26.783  1.00  0.00     0.115 C 
ATOM     37  H   UNL     1     -47.070  37.109  25.755  1.00  0.00     0.076 H 
ATOM     38  H   UNL     1     -48.222  37.018  27.060  1.00  0.00     0.076 H 
BRANCH  36  39
ATOM     39  C   UNL     1     -47.043  35.252  26.858  1.00  0.00     0.010 A 
ATOM     40  C   UNL     1     -46.253  34.655  27.829  1.00  0.00     0.034 A 
ATOM     41  C   UNL     1     -47.654  34.416  25.914  1.00  0.00    -0.028 A 
ATOM     42  N   UNL     1     -46.064  33.322  27.927  1.00  0.00    -0.262 NA
ATOM     43  H   UNL     1     -45.733  35.246  28.579  1.00  0.00     0.084 H 
ATOM     44  C   UNL     1     -47.457  33.033  25.957  1.00  0.00     0.066 A 
ATOM     45  H   UNL     1     -48.282  34.878  25.160  1.00  0.00     0.065 H 
ATOM     46  C   UNL     1     -46.665  32.543  26.991  1.00  0.00     0.051 A 
ATOM     47  H   UNL     1     -46.433  31.491  27.112  1.00  0.00     0.086 H 
BRANCH  44  48
ATOM     48  N   UNL     1     -48.022  32.154  24.980  1.00  0.00    -0.299 N 
ATOM     49  C   UNL     1     -49.358  31.810  24.898  1.00  0.00     0.017 A 
ATOM     50  C   UNL     1     -47.361  31.481  23.952  1.00  0.00     0.150 A 
ATOM     51  C   UNL     1     -49.566  30.944  23.838  1.00  0.00     0.009 A 
ATOM     52  H   UNL     1     -50.096  32.220  25.575  1.00  0.00     0.083 H 
ATOM     53  C   UNL     1     -48.287  30.712  23.248  1.00  0.00     0.067 A 
ATOM     54  N   UNL     1     -46.039  31.527  23.690  1.00  0.00    -0.218 NA
ATOM     55  C   UNL     1     -47.783  29.941  22.185  1.00  0.00     0.136 A 
ATOM     56  C   UNL     1     -45.682  30.765  22.653  1.00  0.00     0.120 A 
ATOM     57  N   UNL     1     -46.472  29.990  21.894  1.00  0.00    -0.219 NA
ATOM     58  H   UNL     1     -44.628  30.772  22.394  1.00  0.00     0.106 H 
BRANCH  51  59
ATOM     59  C   UNL     1     -50.893  30.397  23.422  1.00  0.00     0.074 C 
ATOM     60  H   UNL     1     -50.864  29.307  23.543  1.00  0.00     0.062 H 
ATOM     61  H   UNL     1     -51.721  30.748  24.044  1.00  0.00     0.062 H 
BRANCH  59  62
ATOM     62  O   UNL     1     -51.178  30.644  22.041  1.00  0.00    -0.380 OA
BRANCH  62  63
ATOM     63  C   UNL     1     -51.429  32.014  21.766  1.00  0.00     0.036 C 
ATOM     64  H   UNL     1     -50.729  32.615  22.352  1.00  0.00     0.053 H 
ATOM     65  H   UNL     1     -52.446  32.293  22.052  1.00  0.00     0.053 H 
ATOM     66  H   UNL     1     -51.264  32.229  20.705  1.00  0.00     0.053 H 
ENDBRANCH  62  63
ENDBRANCH  59  62
ENDBRANCH  51  59
BRANCH  55  67
ATOM     67  N   UNL     1     -48.547  29.080  21.402  1.00  0.00    -0.383 N 
ATOM     68  H   UNL     1     -48.690  28.176  21.830  1.00  0.00     0.158 HD
ATOM     69  H   UNL     1     -48.122  29.033  20.479  1.00  0.00     0.158 HD
ENDBRANCH  55  67
ENDBRANCH  44  48
ENDBRANCH  36  39
ENDBRANCH   1  36
TORSDOF 15
ENDMDL
MODEL 7
REMARK VINA RESULT:      -8.0      2.348      3.401
REMARK SMILES CCc1cc(NCCOC)c2c(F)cc(OCc3cncc(-n4cc(COC)c5c(N)ncnc54)c3)cc2n1
REMARK SMILES IDX 16 1 15 2 3 3 4 4 39 5 5 6 38 8 11 9 37 10 12 11 13 13 14 14
REMARK SMILES IDX 2 16 1 19 6 23 7 25 8 28 9 31 10 32 17 36 18 39 19 40 36 41
REMARK SMILES IDX 20 42 22 44 21 46 23 48 24 49 35 50 25 51 29 53 34 54 30 55
REMARK SMILES IDX 33 56 32 57 26 59 27 62 28 63 31 67
REMARK H PARENT 4 7 37 12 14 15 2 17 2 18 1 20 1 21 1 22 6 24 7 26 7 27 8 29
REMARK H PARENT 8 30 10 33 10 34 10 35 17 37 17 38 19 43 36 45 21 47 24 52
REMARK H PARENT 33 58 26 60 26 61 28 64 28 65 28 66 31 68 31 69
REMARK Flexibility Score: inf
ROOT
ATOM      1  O   UNL     1     -47.643  33.996  27.225  1.00  0.00    -0.489 OA
ENDROOT
BRANCH   1   2
ATOM      2  C   UNL     1     -47.881  33.171  26.159  1.00  0.00     0.124 A 
ATOM      3  C   UNL     1     -46.334  30.411  22.622  1.00  0.00     0.043 A 
ATOM      4  C   UNL     1     -47.617  30.114  22.184  1.00  0.00    -0.017 A 
ATOM      5  N   UNL     1     -46.099  31.194  23.696  1.00  0.00    -0.252 NA
ATOM      6  C   UNL     1     -48.719  30.623  22.874  1.00  0.00     0.048 A 
ATOM      7  H   UNL     1     -47.746  29.509  21.293  1.00  0.00     0.066 H 
ATOM      8  C   UNL     1     -47.143  31.724  24.352  1.00  0.00     0.079 A 
ATOM      9  C   UNL     1     -48.482  31.485  23.982  1.00  0.00     0.059 A 
ATOM     10  C   UNL     1     -46.866  32.546  25.438  1.00  0.00     0.007 A 
ATOM     11  C   UNL     1     -49.493  32.105  24.753  1.00  0.00     0.138 A 
ATOM     12  H   UNL     1     -45.826  32.690  25.718  1.00  0.00     0.069 H 
ATOM     13  F   UNL     1     -50.788  31.906  24.455  1.00  0.00    -0.206 F 
ATOM     14  C   UNL     1     -49.205  32.930  25.833  1.00  0.00     0.017 A 
ATOM     15  H   UNL     1     -50.013  33.387  26.394  1.00  0.00     0.069 H 
BRANCH   3  16
ATOM     16  C   UNL     1     -45.132  29.850  21.911  1.00  0.00    -0.013 C 
ATOM     17  H   UNL     1     -45.368  29.680  20.854  1.00  0.00     0.033 H 
ATOM     18  H   UNL     1     -44.322  30.589  21.934  1.00  0.00     0.033 H 
BRANCH  16  19
ATOM     19  C   UNL     1     -44.654  28.558  22.555  1.00  0.00    -0.060 C 
ATOM     20  H   UNL     1     -45.196  28.352  23.485  1.00  0.00     0.023 H 
ATOM     21  H   UNL     1     -44.814  27.714  21.877  1.00  0.00     0.023 H 
ATOM     22  H   UNL     1     -43.586  28.606  22.793  1.00  0.00     0.023 H 
ENDBRANCH  16  19
ENDBRANCH   3  16
BRANCH   6  23
ATOM     23  N   UNL     1     -50.031  30.370  22.409  1.00  0.00    -0.382 N 
ATOM     24  H   UNL     1     -50.142  29.366  22.222  1.00  0.00     0.160 HD
BRANCH  23  25
ATOM     25  C   UNL     1     -50.503  31.120  21.236  1.00  0.00     0.038 C 
ATOM     26  H   UNL     1     -50.912  32.065  21.608  1.00  0.00     0.051 H 
ATOM     27  H   UNL     1     -49.690  31.392  20.556  1.00  0.00     0.051 H 
BRANCH  25  28
ATOM     28  C   UNL     1     -51.600  30.356  20.475  1.00  0.00     0.063 C 
ATOM     29  H   UNL     1     -51.732  30.797  19.481  1.00  0.00     0.059 H 
ATOM     30  H   UNL     1     -52.561  30.441  20.996  1.00  0.00     0.059 H 
BRANCH  28  31
ATOM     31  O   UNL     1     -51.278  28.975  20.272  1.00  0.00    -0.383 OA
BRANCH  31  32
ATOM     32  C   UNL     1     -52.346  28.090  20.575  1.00  0.00     0.036 C 
ATOM     33  H   UNL     1     -53.258  28.682  20.686  1.00  0.00     0.053 H 
ATOM     34  H   UNL     1     -52.157  27.564  21.516  1.00  0.00     0.053 H 
ATOM     35  H   UNL     1     -52.501  27.374  19.764  1.00  0.00     0.053 H 
ENDBRANCH  31  32
ENDBRANCH  28  31
ENDBRANCH  25  28
ENDBRANCH  23  25
ENDBRANCH   6  23
ENDBRANCH   1   2
BRANCH   1  36
ATOM     36  C   UNL     1     -46.260  34.334  27.408  1.00  0.00     0.115 C 
ATOM     37  H   UNL     1     -45.706  34.370  26.462  1.00  0.00     0.076 H 
ATOM     38  H   UNL     1     -45.806  33.513  27.977  1.00  0.00     0.076 H 
BRANCH  36  39
ATOM     39  C   UNL     1     -46.103  35.615  28.182  1.00  0.00     0.010 A 
ATOM     40  C   UNL     1     -46.250  35.647  29.561  1.00  0.00     0.034 A 
ATOM     41  C   UNL     1     -45.855  36.829  27.528  1.00  0.00    -0.028 A 
ATOM     42  N   UNL     1     -46.143  36.770  30.301  1.00  0.00    -0.262 NA
ATOM     43  H   UNL     1     -46.465  34.745  30.130  1.00  0.00     0.084 H 
ATOM     44  C   UNL     1     -45.772  38.022  28.250  1.00  0.00     0.066 A 
ATOM     45  H   UNL     1     -45.728  36.805  26.450  1.00  0.00     0.065 H 
ATOM     46  C   UNL     1     -45.911  37.929  29.632  1.00  0.00     0.051 A 
ATOM     47  H   UNL     1     -45.878  38.791  30.289  1.00  0.00     0.086 H 
BRANCH  44  48
ATOM     48  N   UNL     1     -45.572  39.285  27.612  1.00  0.00    -0.299 N 
ATOM     49  C   UNL     1     -44.342  39.827  27.288  1.00  0.00     0.017 A 
ATOM     50  C   UNL     1     -46.543  40.201  27.206  1.00  0.00     0.150 A 
ATOM     51  C   UNL     1     -44.507  41.059  26.678  1.00  0.00     0.009 A 
ATOM     52  H   UNL     1     -43.418  39.299  27.479  1.00  0.00     0.083 H 
ATOM     53  C   UNL     1     -45.912  41.311  26.648  1.00  0.00     0.067 A 
ATOM     54  N   UNL     1     -47.877  40.067  27.354  1.00  0.00    -0.218 NA
ATOM     55  C   UNL     1     -46.748  42.354  26.207  1.00  0.00     0.136 A 
ATOM     56  C   UNL     1     -48.566  41.112  26.888  1.00  0.00     0.120 A 
ATOM     57  N   UNL     1     -48.081  42.229  26.326  1.00  0.00    -0.219 NA
ATOM     58  H   UNL     1     -49.646  41.051  26.976  1.00  0.00     0.106 H 
BRANCH  51  59
ATOM     59  C   UNL     1     -43.398  41.914  26.155  1.00  0.00     0.074 C 
ATOM     60  H   UNL     1     -42.449  41.409  26.372  1.00  0.00     0.062 H 
ATOM     61  H   UNL     1     -43.428  42.049  25.071  1.00  0.00     0.062 H 
BRANCH  59  62
ATOM     62  O   UNL     1     -43.337  43.187  26.806  1.00  0.00    -0.380 OA
BRANCH  62  63
ATOM     63  C   UNL     1     -42.896  43.098  28.153  1.00  0.00     0.036 C 
ATOM     64  H   UNL     1     -41.811  42.966  28.150  1.00  0.00     0.053 H 
ATOM     65  H   UNL     1     -43.345  42.238  28.658  1.00  0.00     0.053 H 
ATOM     66  H   UNL     1     -43.131  44.019  28.696  1.00  0.00     0.053 H 
ENDBRANCH  62  63
ENDBRANCH  59  62
ENDBRANCH  51  59
BRANCH  55  67
ATOM     67  N   UNL     1     -46.296  43.554  25.668  1.00  0.00    -0.383 N 
ATOM     68  H   UNL     1     -46.967  43.991  25.051  1.00  0.00     0.158 HD
ATOM     69  H   UNL     1     -45.392  43.385  25.234  1.00  0.00     0.158 HD
ENDBRANCH  55  67
ENDBRANCH  44  48
ENDBRANCH  36  39
ENDBRANCH   1  36
TORSDOF 15
ENDMDL
