MODEL 1
REMARK VINA RESULT:     -10.8      0.000      0.000
REMARK SMILES Nc1ccc2ccc(CC[C@H]3C[C@@H](n4cc(Br)c5c(N)ncnc54)[C@H](O)[C@@H]3O)cc2n1
REMARK SMILES IDX 10 1 9 4 8 7 2 8 3 9 31 10 4 11 30 13 5 14 29 16 6 17 7 19
REMARK SMILES IDX 1 22 11 25 12 26 27 27 13 29 25 32 28 36 14 38 15 39 24 40
REMARK SMILES IDX 16 41 18 43 23 44 17 45 19 46 22 47 21 48 20 50 26 53
REMARK H PARENT 10 2 10 3 9 5 9 6 3 12 4 15 29 18 6 20 7 21 1 23 1 24 11 28
REMARK H PARENT 12 30 12 31 27 33 13 34 25 35 28 37 15 42 22 49 20 51 20 52
REMARK H PARENT 26 54
REMARK Flexibility Score: inf
ROOT
ATOM      1  C   UNL     1     -46.383  35.650  27.901  1.00  0.00    -0.044 C 
ATOM      2  H   UNL     1     -45.390  35.247  28.143  1.00  0.00     0.027 H 
ATOM      3  H   UNL     1     -47.108  34.993  28.398  1.00  0.00     0.027 H 
ENDROOT
BRANCH   1   4
ATOM      4  C   UNL     1     -46.594  35.598  26.385  1.00  0.00    -0.027 C 
ATOM      5  H   UNL     1     -45.646  35.785  25.866  1.00  0.00     0.032 H 
ATOM      6  H   UNL     1     -47.279  36.392  26.062  1.00  0.00     0.032 H 
BRANCH   4   7
ATOM      7  C   UNL     1     -47.153  34.266  25.951  1.00  0.00    -0.046 A 
ATOM      8  C   UNL     1     -46.586  30.236  23.481  1.00  0.00     0.124 A 
ATOM      9  C   UNL     1     -47.846  29.772  23.833  1.00  0.00    -0.019 A 
ATOM     10  N   UNL     1     -46.111  31.419  23.898  1.00  0.00    -0.231 NA
ATOM     11  C   UNL     1     -48.649  30.565  24.647  1.00  0.00    -0.049 A 
ATOM     12  H   UNL     1     -48.206  28.812  23.484  1.00  0.00     0.066 H 
ATOM     13  C   UNL     1     -46.881  32.189  24.687  1.00  0.00     0.073 A 
ATOM     14  C   UNL     1     -48.173  31.801  25.092  1.00  0.00     0.000 A 
ATOM     15  H   UNL     1     -49.638  30.213  24.929  1.00  0.00     0.063 H 
ATOM     16  C   UNL     1     -46.398  33.415  25.126  1.00  0.00    -0.033 A 
ATOM     17  C   UNL     1     -48.943  32.642  25.913  1.00  0.00    -0.053 A 
ATOM     18  H   UNL     1     -45.399  33.712  24.810  1.00  0.00     0.065 H 
ATOM     19  C   UNL     1     -48.436  33.869  26.338  1.00  0.00    -0.058 A 
ATOM     20  H   UNL     1     -49.942  32.346  26.226  1.00  0.00     0.063 H 
ATOM     21  H   UNL     1     -49.046  34.510  26.970  1.00  0.00     0.063 H 
BRANCH   8  22
ATOM     22  N   UNL     1     -45.759  29.457  22.665  1.00  0.00    -0.384 N 
ATOM     23  H   UNL     1     -45.218  28.817  23.238  1.00  0.00     0.158 HD
ATOM     24  H   UNL     1     -46.326  28.911  22.024  1.00  0.00     0.158 HD
ENDBRANCH   8  22
ENDBRANCH   4   7
ENDBRANCH   1   4
BRANCH   1  25
ATOM     25  C   UNL     1     -46.495  37.070  28.464  1.00  0.00    -0.010 C 
ATOM     26  C   UNL     1     -45.189  37.869  28.410  1.00  0.00    -0.024 C 
ATOM     27  C   UNL     1     -47.451  37.952  27.657  1.00  0.00     0.085 C 
ATOM     28  H   UNL     1     -46.847  37.004  29.502  1.00  0.00     0.033 H 
ATOM     29  C   UNL     1     -45.624  39.348  28.487  1.00  0.00     0.064 C 
ATOM     30  H   UNL     1     -44.638  37.650  27.488  1.00  0.00     0.029 H 
ATOM     31  H   UNL     1     -44.529  37.613  29.246  1.00  0.00     0.029 H 
ATOM     32  C   UNL     1     -47.126  39.372  28.144  1.00  0.00     0.101 C 
ATOM     33  H   UNL     1     -47.271  37.859  26.581  1.00  0.00     0.063 H 
ATOM     34  H   UNL     1     -45.489  39.688  29.523  1.00  0.00     0.056 H 
ATOM     35  H   UNL     1     -47.417  40.130  27.412  1.00  0.00     0.065 H 
BRANCH  27  36
ATOM     36  O   UNL     1     -48.815  37.643  27.930  1.00  0.00    -0.390 OA
ATOM     37  H   UNL     1     -48.960  36.719  27.657  1.00  0.00     0.211 HD
ENDBRANCH  27  36
BRANCH  29  38
ATOM     38  N   UNL     1     -44.811  40.228  27.664  1.00  0.00    -0.325 N 
ATOM     39  C   UNL     1     -45.181  40.696  26.426  1.00  0.00     0.021 A 
ATOM     40  C   UNL     1     -43.569  40.727  27.988  1.00  0.00     0.146 A 
ATOM     41  C   UNL     1     -44.163  41.498  25.969  1.00  0.00     0.048 A 
ATOM     42  H   UNL     1     -46.127  40.421  25.977  1.00  0.00     0.083 H 
ATOM     43  C   UNL     1     -43.134  41.535  26.941  1.00  0.00     0.075 A 
ATOM     44  N   UNL     1     -42.903  40.470  29.126  1.00  0.00    -0.218 NA
ATOM     45  Br  UNL     1     -44.144  42.395  24.321  1.00  0.00    -0.048 Br
ATOM     46  C   UNL     1     -41.876  42.138  27.099  1.00  0.00     0.137 A 
ATOM     47  C   UNL     1     -41.717  41.100  29.160  1.00  0.00     0.120 A 
ATOM     48  N   UNL     1     -41.174  41.898  28.224  1.00  0.00    -0.219 NA
ATOM     49  H   UNL     1     -41.120  40.946  30.053  1.00  0.00     0.106 H 
BRANCH  46  50
ATOM     50  N   UNL     1     -41.286  42.969  26.160  1.00  0.00    -0.383 N 
ATOM     51  H   UNL     1     -41.925  43.516  25.599  1.00  0.00     0.158 HD
ATOM     52  H   UNL     1     -40.527  42.504  25.676  1.00  0.00     0.158 HD
ENDBRANCH  46  50
ENDBRANCH  29  38
BRANCH  32  53
ATOM     53  O   UNL     1     -47.878  39.642  29.340  1.00  0.00    -0.388 OA
ATOM     54  H   UNL     1     -47.308  40.255  29.852  1.00  0.00     0.211 HD
ENDBRANCH  32  53
ENDBRANCH   1  25
TORSDOF 8
ENDMDL
MODEL 2
REMARK VINA RESULT:     -10.5      3.212     10.085
REMARK SMILES Nc1ccc2ccc(CC[C@H]3C[C@@H](n4cc(Br)c5c(N)ncnc54)[C@H](O)[C@@H]3O)cc2n1
REMARK SMILES IDX 10 1 9 4 8 7 2 8 3 9 31 10 4 11 30 13 5 14 29 16 6 17 7 19
REMARK SMILES IDX 1 22 11 25 12 26 27 27 13 29 25 32 28 36 14 38 15 39 24 40
REMARK SMILES IDX 16 41 18 43 23 44 17 45 19 46 22 47 21 48 20 50 26 53
REMARK H PARENT 10 2 10 3 9 5 9 6 3 12 4 15 29 18 6 20 7 21 1 23 1 24 11 28
REMARK H PARENT 12 30 12 31 27 33 13 34 25 35 28 37 15 42 22 49 20 51 20 52
REMARK H PARENT 26 54
REMARK Flexibility Score: inf
ROOT
ATOM      1  C   UNL     1     -47.667  36.260  26.811  1.00  0.00    -0.044 C 
ATOM      2  H   UNL     1     -46.997  36.573  26.000  1.00  0.00     0.027 H 
ATOM      3  H   UNL     1     -48.681  36.537  26.495  1.00  0.00     0.027 H 
ENDROOT
BRANCH   1   4
ATOM      4  C   UNL     1     -47.301  37.018  28.091  1.00  0.00    -0.027 C 
ATOM      5  H   UNL     1     -46.855  36.330  28.821  1.00  0.00     0.032 H 
ATOM      6  H   UNL     1     -48.198  37.428  28.569  1.00  0.00     0.032 H 
BRANCH   4   7
ATOM      7  C   UNL     1     -46.340  38.145  27.809  1.00  0.00    -0.046 A 
ATOM      8  C   UNL     1     -42.620  40.760  29.222  1.00  0.00     0.124 A 
ATOM      9  C   UNL     1     -42.672  41.556  28.086  1.00  0.00    -0.019 A 
ATOM     10  N   UNL     1     -43.480  39.753  29.435  1.00  0.00    -0.231 NA
ATOM     11  C   UNL     1     -43.654  41.302  27.133  1.00  0.00    -0.049 A 
ATOM     12  H   UNL     1     -41.965  42.363  27.936  1.00  0.00     0.066 H 
ATOM     13  C   UNL     1     -44.430  39.501  28.517  1.00  0.00     0.073 A 
ATOM     14  C   UNL     1     -44.560  40.258  27.337  1.00  0.00     0.000 A 
ATOM     15  H   UNL     1     -43.705  41.919  26.240  1.00  0.00     0.063 H 
ATOM     16  C   UNL     1     -45.325  38.459  28.728  1.00  0.00    -0.033 A 
ATOM     17  C   UNL     1     -45.572  39.960  26.409  1.00  0.00    -0.053 A 
ATOM     18  H   UNL     1     -45.222  37.877  29.642  1.00  0.00     0.065 H 
ATOM     19  C   UNL     1     -46.458  38.910  26.646  1.00  0.00    -0.058 A 
ATOM     20  H   UNL     1     -45.675  40.544  25.497  1.00  0.00     0.063 H 
ATOM     21  H   UNL     1     -47.238  38.695  25.919  1.00  0.00     0.063 H 
BRANCH   8  22
ATOM     22  N   UNL     1     -41.642  40.994  30.194  1.00  0.00    -0.384 N 
ATOM     23  H   UNL     1     -40.841  41.450  29.769  1.00  0.00     0.158 HD
ATOM     24  H   UNL     1     -42.014  41.606  30.913  1.00  0.00     0.158 HD
ENDBRANCH   8  22
ENDBRANCH   4   7
ENDBRANCH   1   4
BRANCH   1  25
ATOM     25  C   UNL     1     -47.571  34.740  26.979  1.00  0.00    -0.010 C 
ATOM     26  C   UNL     1     -48.698  33.963  26.293  1.00  0.00    -0.024 C 
ATOM     27  C   UNL     1     -46.320  34.151  26.322  1.00  0.00     0.085 C 
ATOM     28  H   UNL     1     -47.562  34.511  28.053  1.00  0.00     0.033 H 
ATOM     29  C   UNL     1     -48.142  32.535  26.108  1.00  0.00     0.064 C 
ATOM     30  H   UNL     1     -48.963  34.427  25.335  1.00  0.00     0.029 H 
ATOM     31  H   UNL     1     -49.607  33.951  26.905  1.00  0.00     0.029 H 
ATOM     32  C   UNL     1     -46.615  32.644  26.279  1.00  0.00     0.101 C 
ATOM     33  H   UNL     1     -46.173  34.548  25.312  1.00  0.00     0.063 H 
ATOM     34  H   UNL     1     -48.547  31.907  26.914  1.00  0.00     0.056 H 
ATOM     35  H   UNL     1     -46.030  32.137  25.506  1.00  0.00     0.065 H 
BRANCH  27  36
ATOM     36  O   UNL     1     -45.149  34.397  27.095  1.00  0.00    -0.390 OA
ATOM     37  H   UNL     1     -44.994  35.359  27.082  1.00  0.00     0.211 HD
ENDBRANCH  27  36
BRANCH  29  38
ATOM     38  N   UNL     1     -48.560  31.913  24.862  1.00  0.00    -0.325 N 
ATOM     39  C   UNL     1     -49.866  31.797  24.452  1.00  0.00     0.021 A 
ATOM     40  C   UNL     1     -47.732  31.357  23.913  1.00  0.00     0.146 A 
ATOM     41  C   UNL     1     -49.858  31.164  23.232  1.00  0.00     0.048 A 
ATOM     42  H   UNL     1     -50.684  32.169  25.056  1.00  0.00     0.083 H 
ATOM     43  C   UNL     1     -48.519  30.879  22.870  1.00  0.00     0.075 A 
ATOM     44  N   UNL     1     -46.392  31.296  23.993  1.00  0.00    -0.218 NA
ATOM     45  Br  UNL     1     -51.379  30.746  22.217  1.00  0.00    -0.048 Br
ATOM     46  C   UNL     1     -47.839  30.276  21.800  1.00  0.00     0.137 A 
ATOM     47  C   UNL     1     -45.857  30.699  22.915  1.00  0.00     0.120 A 
ATOM     48  N   UNL     1     -46.495  30.188  21.847  1.00  0.00    -0.219 NA
ATOM     49  H   UNL     1     -44.775  30.616  22.903  1.00  0.00     0.106 H 
BRANCH  46  50
ATOM     50  N   UNL     1     -48.460  29.743  20.682  1.00  0.00    -0.383 N 
ATOM     51  H   UNL     1     -49.467  29.666  20.737  1.00  0.00     0.158 HD
ATOM     52  H   UNL     1     -47.954  28.943  20.321  1.00  0.00     0.158 HD
ENDBRANCH  46  50
ENDBRANCH  29  38
BRANCH  32  53
ATOM     53  O   UNL     1     -46.237  32.056  27.536  1.00  0.00    -0.388 OA
ATOM     54  H   UNL     1     -46.112  32.824  28.134  1.00  0.00     0.211 HD
ENDBRANCH  32  53
ENDBRANCH   1  25
TORSDOF 8
ENDMDL
MODEL 3
REMARK VINA RESULT:     -10.0      3.064     10.149
REMARK SMILES Nc1ccc2ccc(CC[C@H]3C[C@@H](n4cc(Br)c5c(N)ncnc54)[C@H](O)[C@@H]3O)cc2n1
REMARK SMILES IDX 10 1 9 4 8 7 2 8 3 9 31 10 4 11 30 13 5 14 29 16 6 17 7 19
REMARK SMILES IDX 1 22 11 25 12 26 27 27 13 29 25 32 28 36 14 38 15 39 24 40
REMARK SMILES IDX 16 41 18 43 23 44 17 45 19 46 22 47 21 48 20 50 26 53
REMARK H PARENT 10 2 10 3 9 5 9 6 3 12 4 15 29 18 6 20 7 21 1 23 1 24 11 28
REMARK H PARENT 12 30 12 31 27 33 13 34 25 35 28 37 15 42 22 49 20 51 20 52
REMARK H PARENT 26 54
REMARK Flexibility Score: inf
ROOT
ATOM      1  C   UNL     1     -47.356  36.272  26.860  1.00  0.00    -0.044 C 
ATOM      2  H   UNL     1     -46.402  36.614  26.438  1.00  0.00     0.027 H 
ATOM      3  H   UNL     1     -48.125  36.517  26.115  1.00  0.00     0.027 H 
ENDROOT
BRANCH   1   4
ATOM      4  C   UNL     1     -47.637  37.032  28.160  1.00  0.00    -0.027 C 
ATOM      5  H   UNL     1     -48.009  36.341  28.927  1.00  0.00     0.032 H 
ATOM      6  H   UNL     1     -48.428  37.776  28.010  1.00  0.00     0.032 H 
BRANCH   4   7
ATOM      7  C   UNL     1     -46.401  37.731  28.668  1.00  0.00    -0.046 A 
ATOM      8  C   UNL     1     -43.193  41.208  28.132  1.00  0.00     0.124 A 
ATOM      9  C   UNL     1     -42.483  40.808  29.255  1.00  0.00    -0.019 A 
ATOM     10  N   UNL     1     -44.300  40.575  27.716  1.00  0.00    -0.231 NA
ATOM     11  C   UNL     1     -42.933  39.706  29.976  1.00  0.00    -0.049 A 
ATOM     12  H   UNL     1     -41.592  41.337  29.571  1.00  0.00     0.066 H 
ATOM     13  C   UNL     1     -44.742  39.511  28.410  1.00  0.00     0.073 A 
ATOM     14  C   UNL     1     -44.084  39.032  29.559  1.00  0.00     0.000 A 
ATOM     15  H   UNL     1     -42.385  39.383  30.857  1.00  0.00     0.063 H 
ATOM     16  C   UNL     1     -45.888  38.848  27.988  1.00  0.00    -0.033 A 
ATOM     17  C   UNL     1     -44.581  37.914  30.248  1.00  0.00    -0.053 A 
ATOM     18  H   UNL     1     -46.393  39.221  27.098  1.00  0.00     0.065 H 
ATOM     19  C   UNL     1     -45.732  37.265  29.803  1.00  0.00    -0.058 A 
ATOM     20  H   UNL     1     -44.074  37.541  31.136  1.00  0.00     0.063 H 
ATOM     21  H   UNL     1     -46.102  36.399  30.346  1.00  0.00     0.063 H 
BRANCH   8  22
ATOM     22  N   UNL     1     -42.761  42.313  27.390  1.00  0.00    -0.384 N 
ATOM     23  H   UNL     1     -42.657  43.115  28.003  1.00  0.00     0.158 HD
ATOM     24  H   UNL     1     -41.859  42.112  26.971  1.00  0.00     0.158 HD
ENDBRANCH   8  22
ENDBRANCH   4   7
ENDBRANCH   1   4
BRANCH   1  25
ATOM     25  C   UNL     1     -47.295  34.755  27.066  1.00  0.00    -0.010 C 
ATOM     26  C   UNL     1     -48.104  33.951  26.044  1.00  0.00    -0.024 C 
ATOM     27  C   UNL     1     -45.885  34.189  26.884  1.00  0.00     0.085 C 
ATOM     28  H   UNL     1     -47.651  34.530  28.081  1.00  0.00     0.033 H 
ATOM     29  C   UNL     1     -47.493  32.535  26.076  1.00  0.00     0.064 C 
ATOM     30  H   UNL     1     -48.033  34.407  25.049  1.00  0.00     0.029 H 
ATOM     31  H   UNL     1     -49.168  33.923  26.307  1.00  0.00     0.029 H 
ATOM     32  C   UNL     1     -46.119  32.676  26.759  1.00  0.00     0.101 C 
ATOM     33  H   UNL     1     -45.407  34.586  25.982  1.00  0.00     0.063 H 
ATOM     34  H   UNL     1     -48.137  31.902  26.701  1.00  0.00     0.056 H 
ATOM     35  H   UNL     1     -45.295  32.179  26.239  1.00  0.00     0.065 H 
BRANCH  27  36
ATOM     36  O   UNL     1     -45.055  34.463  28.010  1.00  0.00    -0.390 OA
ATOM     37  H   UNL     1     -44.799  33.606  28.394  1.00  0.00     0.211 HD
ENDBRANCH  27  36
BRANCH  29  38
ATOM     38  N   UNL     1     -47.446  31.900  24.769  1.00  0.00    -0.325 N 
ATOM     39  C   UNL     1     -46.398  32.011  23.888  1.00  0.00     0.021 A 
ATOM     40  C   UNL     1     -48.421  31.098  24.220  1.00  0.00     0.146 A 
ATOM     41  C   UNL     1     -46.717  31.271  22.775  1.00  0.00     0.048 A 
ATOM     42  H   UNL     1     -45.522  32.604  24.123  1.00  0.00     0.083 H 
ATOM     43  C   UNL     1     -47.991  30.682  22.963  1.00  0.00     0.075 A 
ATOM     44  N   UNL     1     -49.586  30.779  24.809  1.00  0.00    -0.218 NA
ATOM     45  Br  UNL     1     -45.635  31.079  21.254  1.00  0.00    -0.048 Br
ATOM     46  C   UNL     1     -48.863  29.847  22.249  1.00  0.00     0.137 A 
ATOM     47  C   UNL     1     -50.333  29.978  24.030  1.00  0.00     0.120 A 
ATOM     48  N   UNL     1     -50.045  29.510  22.803  1.00  0.00    -0.219 NA
ATOM     49  H   UNL     1     -51.290  29.671  24.441  1.00  0.00     0.106 H 
BRANCH  46  50
ATOM     50  N   UNL     1     -48.600  29.341  20.986  1.00  0.00    -0.383 N 
ATOM     51  H   UNL     1     -49.256  28.649  20.648  1.00  0.00     0.158 HD
ATOM     52  H   UNL     1     -47.615  29.142  20.862  1.00  0.00     0.158 HD
ENDBRANCH  46  50
ENDBRANCH  29  38
BRANCH  32  53
ATOM     53  O   UNL     1     -46.184  32.101  28.076  1.00  0.00    -0.388 OA
ATOM     54  H   UNL     1     -46.882  31.414  28.005  1.00  0.00     0.211 HD
ENDBRANCH  32  53
ENDBRANCH   1  25
TORSDOF 8
ENDMDL
MODEL 4
REMARK VINA RESULT:      -9.5      1.899      2.855
REMARK SMILES Nc1ccc2ccc(CC[C@H]3C[C@@H](n4cc(Br)c5c(N)ncnc54)[C@H](O)[C@@H]3O)cc2n1
REMARK SMILES IDX 10 1 9 4 8 7 2 8 3 9 31 10 4 11 30 13 5 14 29 16 6 17 7 19
REMARK SMILES IDX 1 22 11 25 12 26 27 27 13 29 25 32 28 36 14 38 15 39 24 40
REMARK SMILES IDX 16 41 18 43 23 44 17 45 19 46 22 47 21 48 20 50 26 53
REMARK H PARENT 10 2 10 3 9 5 9 6 3 12 4 15 29 18 6 20 7 21 1 23 1 24 11 28
REMARK H PARENT 12 30 12 31 27 33 13 34 25 35 28 37 15 42 22 49 20 51 20 52
REMARK H PARENT 26 54
REMARK Flexibility Score: inf
ROOT
ATOM      1  C   UNL     1     -46.291  33.568  26.936  1.00  0.00    -0.044 C 
ATOM      2  H   UNL     1     -45.201  33.514  27.063  1.00  0.00     0.027 H 
ATOM      3  H   UNL     1     -46.689  32.614  27.304  1.00  0.00     0.027 H 
ENDROOT
BRANCH   1   4
ATOM      4  C   UNL     1     -46.619  33.726  25.448  1.00  0.00    -0.027 C 
ATOM      5  H   UNL     1     -45.797  34.238  24.933  1.00  0.00     0.032 H 
ATOM      6  H   UNL     1     -47.504  34.358  25.311  1.00  0.00     0.032 H 
BRANCH   4   7
ATOM      7  C   UNL     1     -46.869  32.390  24.794  1.00  0.00    -0.046 A 
ATOM      8  C   UNL     1     -49.269  28.278  24.746  1.00  0.00     0.124 A 
ATOM      9  C   UNL     1     -48.574  27.816  23.637  1.00  0.00    -0.019 A 
ATOM     10  N   UNL     1     -49.035  29.480  25.294  1.00  0.00    -0.231 NA
ATOM     11  C   UNL     1     -47.595  28.628  23.073  1.00  0.00    -0.049 A 
ATOM     12  H   UNL     1     -48.783  26.842  23.213  1.00  0.00     0.066 H 
ATOM     13  C   UNL     1     -48.091  30.270  24.752  1.00  0.00     0.073 A 
ATOM     14  C   UNL     1     -47.334  29.883  23.630  1.00  0.00     0.000 A 
ATOM     15  H   UNL     1     -47.043  28.277  22.205  1.00  0.00     0.063 H 
ATOM     16  C   UNL     1     -47.841  31.518  25.311  1.00  0.00    -0.033 A 
ATOM     17  C   UNL     1     -46.356  30.742  23.102  1.00  0.00    -0.053 A 
ATOM     18  H   UNL     1     -48.428  31.813  26.180  1.00  0.00     0.065 H 
ATOM     19  C   UNL     1     -46.123  31.988  23.683  1.00  0.00    -0.058 A 
ATOM     20  H   UNL     1     -45.769  30.444  22.235  1.00  0.00     0.063 H 
ATOM     21  H   UNL     1     -45.359  32.638  23.265  1.00  0.00     0.063 H 
BRANCH   8  22
ATOM     22  N   UNL     1     -50.259  27.482  25.331  1.00  0.00    -0.384 N 
ATOM     23  H   UNL     1     -51.094  27.497  24.754  1.00  0.00     0.158 HD
ATOM     24  H   UNL     1     -49.932  26.523  25.396  1.00  0.00     0.158 HD
ENDBRANCH   8  22
ENDBRANCH   4   7
ENDBRANCH   1   4
BRANCH   1  25
ATOM     25  C   UNL     1     -46.835  34.722  27.784  1.00  0.00    -0.010 C 
ATOM     26  C   UNL     1     -45.770  35.729  28.229  1.00  0.00    -0.024 C 
ATOM     27  C   UNL     1     -47.821  35.607  27.017  1.00  0.00     0.085 C 
ATOM     28  H   UNL     1     -47.336  34.297  28.665  1.00  0.00     0.033 H 
ATOM     29  C   UNL     1     -46.553  37.016  28.559  1.00  0.00     0.064 C 
ATOM     30  H   UNL     1     -45.032  35.889  27.434  1.00  0.00     0.029 H 
ATOM     31  H   UNL     1     -45.222  35.370  29.108  1.00  0.00     0.029 H 
ATOM     32  C   UNL     1     -47.935  36.862  27.895  1.00  0.00     0.101 C 
ATOM     33  H   UNL     1     -47.441  35.861  26.022  1.00  0.00     0.063 H 
ATOM     34  H   UNL     1     -46.685  37.064  29.649  1.00  0.00     0.056 H 
ATOM     35  H   UNL     1     -48.268  37.731  27.321  1.00  0.00     0.065 H 
BRANCH  27  36
ATOM     36  O   UNL     1     -49.097  34.987  26.884  1.00  0.00    -0.390 OA
ATOM     37  H   UNL     1     -49.336  35.021  25.940  1.00  0.00     0.211 HD
ENDBRANCH  27  36
BRANCH  29  38
ATOM     38  N   UNL     1     -45.845  38.230  28.185  1.00  0.00    -0.325 N 
ATOM     39  C   UNL     1     -46.155  39.005  27.093  1.00  0.00     0.021 A 
ATOM     40  C   UNL     1     -44.778  38.788  28.853  1.00  0.00     0.146 A 
ATOM     41  C   UNL     1     -45.274  40.060  27.077  1.00  0.00     0.048 A 
ATOM     42  H   UNL     1     -46.965  38.743  26.425  1.00  0.00     0.083 H 
ATOM     43  C   UNL     1     -44.396  39.946  28.181  1.00  0.00     0.075 A 
ATOM     44  N   UNL     1     -44.212  38.288  29.964  1.00  0.00    -0.218 NA
ATOM     45  Br  UNL     1     -45.245  41.428  25.792  1.00  0.00    -0.048 Br
ATOM     46  C   UNL     1     -43.315  40.655  28.725  1.00  0.00     0.137 A 
ATOM     47  C   UNL     1     -43.191  39.052  30.388  1.00  0.00     0.120 A 
ATOM     48  N   UNL     1     -42.715  40.182  29.836  1.00  0.00    -0.219 NA
ATOM     49  H   UNL     1     -42.684  38.715  31.287  1.00  0.00     0.106 H 
BRANCH  46  50
ATOM     50  N   UNL     1     -42.799  41.825  28.189  1.00  0.00    -0.383 N 
ATOM     51  H   UNL     1     -42.721  41.845  27.181  1.00  0.00     0.158 HD
ATOM     52  H   UNL     1     -42.005  42.160  28.721  1.00  0.00     0.158 HD
ENDBRANCH  46  50
ENDBRANCH  29  38
BRANCH  32  53
ATOM     53  O   UNL     1     -48.925  36.634  28.913  1.00  0.00    -0.388 OA
ATOM     54  H   UNL     1     -49.358  37.507  29.029  1.00  0.00     0.211 HD
ENDBRANCH  32  53
ENDBRANCH   1  25
TORSDOF 8
ENDMDL
MODEL 5
REMARK VINA RESULT:      -9.4      2.824      3.583
REMARK SMILES Nc1ccc2ccc(CC[C@H]3C[C@@H](n4cc(Br)c5c(N)ncnc54)[C@H](O)[C@@H]3O)cc2n1
REMARK SMILES IDX 10 1 9 4 8 7 2 8 3 9 31 10 4 11 30 13 5 14 29 16 6 17 7 19
REMARK SMILES IDX 1 22 11 25 12 26 27 27 13 29 25 32 28 36 14 38 15 39 24 40
REMARK SMILES IDX 16 41 18 43 23 44 17 45 19 46 22 47 21 48 20 50 26 53
REMARK H PARENT 10 2 10 3 9 5 9 6 3 12 4 15 29 18 6 20 7 21 1 23 1 24 11 28
REMARK H PARENT 12 30 12 31 27 33 13 34 25 35 28 37 15 42 22 49 20 51 20 52
REMARK H PARENT 26 54
REMARK Flexibility Score: inf
ROOT
ATOM      1  C   UNL     1     -46.555  35.031  27.623  1.00  0.00    -0.044 C 
ATOM      2  H   UNL     1     -45.818  34.248  27.842  1.00  0.00     0.027 H 
ATOM      3  H   UNL     1     -47.449  34.782  28.209  1.00  0.00     0.027 H 
ENDROOT
BRANCH   1   4
ATOM      4  C   UNL     1     -46.894  35.004  26.129  1.00  0.00    -0.027 C 
ATOM      5  H   UNL     1     -46.049  35.390  25.545  1.00  0.00     0.032 H 
ATOM      6  H   UNL     1     -47.741  35.665  25.912  1.00  0.00     0.032 H 
BRANCH   4   7
ATOM      7  C   UNL     1     -47.233  33.609  25.666  1.00  0.00    -0.046 A 
ATOM      8  C   UNL     1     -46.196  29.894  22.875  1.00  0.00     0.124 A 
ATOM      9  C   UNL     1     -47.293  29.172  23.327  1.00  0.00    -0.019 A 
ATOM     10  N   UNL     1     -45.912  31.127  23.321  1.00  0.00    -0.231 NA
ATOM     11  C   UNL     1     -48.131  29.749  24.276  1.00  0.00    -0.049 A 
ATOM     12  H   UNL     1     -47.500  28.177  22.952  1.00  0.00     0.066 H 
ATOM     13  C   UNL     1     -46.718  31.689  24.239  1.00  0.00     0.073 A 
ATOM     14  C   UNL     1     -47.853  31.034  24.752  1.00  0.00     0.000 A 
ATOM     15  H   UNL     1     -48.993  29.195  24.637  1.00  0.00     0.063 H 
ATOM     16  C   UNL     1     -46.431  32.966  24.708  1.00  0.00    -0.033 A 
ATOM     17  C   UNL     1     -48.667  31.664  25.707  1.00  0.00    -0.053 A 
ATOM     18  H   UNL     1     -45.553  33.470  24.308  1.00  0.00     0.065 H 
ATOM     19  C   UNL     1     -48.359  32.947  26.160  1.00  0.00    -0.058 A 
ATOM     20  H   UNL     1     -49.546  31.160  26.104  1.00  0.00     0.063 H 
ATOM     21  H   UNL     1     -49.002  33.422  26.897  1.00  0.00     0.063 H 
BRANCH   8  22
ATOM     22  N   UNL     1     -45.338  29.335  21.923  1.00  0.00    -0.384 N 
ATOM     23  H   UNL     1     -45.209  29.987  21.155  1.00  0.00     0.158 HD
ATOM     24  H   UNL     1     -44.432  29.154  22.343  1.00  0.00     0.158 HD
ENDBRANCH   8  22
ENDBRANCH   4   7
ENDBRANCH   1   4
BRANCH   1  25
ATOM     25  C   UNL     1     -45.996  36.384  28.075  1.00  0.00    -0.010 C 
ATOM     26  C   UNL     1     -46.374  37.554  27.164  1.00  0.00    -0.024 C 
ATOM     27  C   UNL     1     -46.551  36.831  29.430  1.00  0.00     0.085 C 
ATOM     28  H   UNL     1     -44.901  36.301  28.139  1.00  0.00     0.033 H 
ATOM     29  C   UNL     1     -46.207  38.812  28.041  1.00  0.00     0.064 C 
ATOM     30  H   UNL     1     -47.401  37.443  26.797  1.00  0.00     0.029 H 
ATOM     31  H   UNL     1     -45.723  37.604  26.284  1.00  0.00     0.029 H 
ATOM     32  C   UNL     1     -46.172  38.318  29.500  1.00  0.00     0.101 C 
ATOM     33  H   UNL     1     -47.638  36.703  29.479  1.00  0.00     0.063 H 
ATOM     34  H   UNL     1     -45.239  39.270  27.797  1.00  0.00     0.056 H 
ATOM     35  H   UNL     1     -46.817  38.870  30.188  1.00  0.00     0.065 H 
BRANCH  27  36
ATOM     36  O   UNL     1     -45.950  36.122  30.510  1.00  0.00    -0.390 OA
ATOM     37  H   UNL     1     -45.139  35.707  30.165  1.00  0.00     0.211 HD
ENDBRANCH  27  36
BRANCH  29  38
ATOM     38  N   UNL     1     -47.212  39.831  27.782  1.00  0.00    -0.325 N 
ATOM     39  C   UNL     1     -48.516  39.762  28.210  1.00  0.00     0.021 A 
ATOM     40  C   UNL     1     -47.022  41.003  27.085  1.00  0.00     0.146 A 
ATOM     41  C   UNL     1     -49.149  40.903  27.780  1.00  0.00     0.048 A 
ATOM     42  H   UNL     1     -48.881  38.915  28.778  1.00  0.00     0.083 H 
ATOM     43  C   UNL     1     -48.224  41.705  27.069  1.00  0.00     0.075 A 
ATOM     44  N   UNL     1     -45.865  41.391  26.523  1.00  0.00    -0.218 NA
ATOM     45  Br  UNL     1     -50.952  41.324  28.087  1.00  0.00    -0.048 Br
ATOM     46  C   UNL     1     -48.218  42.937  26.399  1.00  0.00     0.137 A 
ATOM     47  C   UNL     1     -45.985  42.583  25.913  1.00  0.00     0.120 A 
ATOM     48  N   UNL     1     -47.079  43.358  25.815  1.00  0.00    -0.219 NA
ATOM     49  H   UNL     1     -45.088  42.968  25.438  1.00  0.00     0.106 H 
BRANCH  46  50
ATOM     50  N   UNL     1     -49.322  43.767  26.281  1.00  0.00    -0.383 N 
ATOM     51  H   UNL     1     -49.196  44.711  26.620  1.00  0.00     0.158 HD
ATOM     52  H   UNL     1     -50.176  43.290  26.546  1.00  0.00     0.158 HD
ENDBRANCH  46  50
ENDBRANCH  29  38
BRANCH  32  53
ATOM     53  O   UNL     1     -44.831  38.436  30.006  1.00  0.00    -0.388 OA
ATOM     54  H   UNL     1     -44.443  37.543  29.876  1.00  0.00     0.211 HD
ENDBRANCH  32  53
ENDBRANCH   1  25
TORSDOF 8
ENDMDL
MODEL 6
REMARK VINA RESULT:      -9.3      3.687     10.237
REMARK SMILES Nc1ccc2ccc(CC[C@H]3C[C@@H](n4cc(Br)c5c(N)ncnc54)[C@H](O)[C@@H]3O)cc2n1
REMARK SMILES IDX 10 1 9 4 8 7 2 8 3 9 31 10 4 11 30 13 5 14 29 16 6 17 7 19
REMARK SMILES IDX 1 22 11 25 12 26 27 27 13 29 25 32 28 36 14 38 15 39 24 40
REMARK SMILES IDX 16 41 18 43 23 44 17 45 19 46 22 47 21 48 20 50 26 53
REMARK H PARENT 10 2 10 3 9 5 9 6 3 12 4 15 29 18 6 20 7 21 1 23 1 24 11 28
REMARK H PARENT 12 30 12 31 27 33 13 34 25 35 28 37 15 42 22 49 20 51 20 52
REMARK H PARENT 26 54
REMARK Flexibility Score: inf
ROOT
ATOM      1  C   UNL     1     -47.620  35.048  26.487  1.00  0.00    -0.044 C 
ATOM      2  H   UNL     1     -46.548  35.075  26.252  1.00  0.00     0.027 H 
ATOM      3  H   UNL     1     -48.129  35.540  25.648  1.00  0.00     0.027 H 
ENDROOT
BRANCH   1   4
ATOM      4  C   UNL     1     -47.875  35.834  27.777  1.00  0.00    -0.027 C 
ATOM      5  H   UNL     1     -47.862  35.156  28.639  1.00  0.00     0.032 H 
ATOM      6  H   UNL     1     -48.873  36.289  27.763  1.00  0.00     0.032 H 
BRANCH   4   7
ATOM      7  C   UNL     1     -46.847  36.920  27.974  1.00  0.00    -0.046 A 
ATOM      8  C   UNL     1     -44.818  40.925  26.390  1.00  0.00     0.124 A 
ATOM      9  C   UNL     1     -43.925  40.964  27.452  1.00  0.00    -0.019 A 
ATOM     10  N   UNL     1     -45.733  39.954  26.253  1.00  0.00    -0.231 NA
ATOM     11  C   UNL     1     -43.978  39.956  28.410  1.00  0.00    -0.049 A 
ATOM     12  H   UNL     1     -43.196  41.760  27.541  1.00  0.00     0.066 H 
ATOM     13  C   UNL     1     -45.791  38.978  27.177  1.00  0.00     0.073 A 
ATOM     14  C   UNL     1     -44.923  38.934  28.284  1.00  0.00     0.000 A 
ATOM     15  H   UNL     1     -43.284  39.974  29.245  1.00  0.00     0.063 H 
ATOM     16  C   UNL     1     -46.736  37.968  27.044  1.00  0.00    -0.033 A 
ATOM     17  C   UNL     1     -45.019  37.891  29.221  1.00  0.00    -0.053 A 
ATOM     18  H   UNL     1     -47.404  38.005  26.186  1.00  0.00     0.065 H 
ATOM     19  C   UNL     1     -45.974  36.888  29.064  1.00  0.00    -0.058 A 
ATOM     20  H   UNL     1     -44.349  37.854  30.077  1.00  0.00     0.063 H 
ATOM     21  H   UNL     1     -46.032  36.086  29.796  1.00  0.00     0.063 H 
BRANCH   8  22
ATOM     22  N   UNL     1     -44.786  41.927  25.414  1.00  0.00    -0.384 N 
ATOM     23  H   UNL     1     -45.033  42.819  25.833  1.00  0.00     0.158 HD
ATOM     24  H   UNL     1     -43.849  42.002  25.032  1.00  0.00     0.158 HD
ENDBRANCH   8  22
ENDBRANCH   4   7
ENDBRANCH   1   4
BRANCH   1  25
ATOM     25  C   UNL     1     -48.073  33.588  26.587  1.00  0.00    -0.010 C 
ATOM     26  C   UNL     1     -49.183  33.208  25.603  1.00  0.00    -0.024 C 
ATOM     27  C   UNL     1     -46.963  32.598  26.228  1.00  0.00     0.085 C 
ATOM     28  H   UNL     1     -48.410  33.401  27.617  1.00  0.00     0.033 H 
ATOM     29  C   UNL     1     -49.098  31.672  25.481  1.00  0.00     0.064 C 
ATOM     30  H   UNL     1     -49.031  33.705  24.637  1.00  0.00     0.029 H 
ATOM     31  H   UNL     1     -50.168  33.516  25.970  1.00  0.00     0.029 H 
ATOM     32  C   UNL     1     -47.714  31.273  26.029  1.00  0.00     0.101 C 
ATOM     33  H   UNL     1     -46.445  32.894  25.309  1.00  0.00     0.063 H 
ATOM     34  H   UNL     1     -49.874  31.237  26.126  1.00  0.00     0.056 H 
ATOM     35  H   UNL     1     -47.154  30.578  25.397  1.00  0.00     0.065 H 
BRANCH  27  36
ATOM     36  O   UNL     1     -46.009  32.466  27.278  1.00  0.00    -0.390 OA
ATOM     37  H   UNL     1     -45.993  33.312  27.760  1.00  0.00     0.211 HD
ENDBRANCH  27  36
BRANCH  29  38
ATOM     38  N   UNL     1     -49.370  31.186  24.138  1.00  0.00    -0.325 N 
ATOM     39  C   UNL     1     -50.614  30.825  23.680  1.00  0.00     0.021 A 
ATOM     40  C   UNL     1     -48.446  31.020  23.131  1.00  0.00     0.146 A 
ATOM     41  C   UNL     1     -50.469  30.429  22.372  1.00  0.00     0.048 A 
ATOM     42  H   UNL     1     -51.488  30.876  24.316  1.00  0.00     0.083 H 
ATOM     43  C   UNL     1     -49.107  30.546  22.002  1.00  0.00     0.075 A 
ATOM     44  N   UNL     1     -47.131  31.276  23.235  1.00  0.00    -0.218 NA
ATOM     45  Br  UNL     1     -51.857  29.828  21.261  1.00  0.00    -0.048 Br
ATOM     46  C   UNL     1     -48.318  30.318  20.865  1.00  0.00     0.137 A 
ATOM     47  C   UNL     1     -46.483  31.020  22.086  1.00  0.00     0.120 A 
ATOM     48  N   UNL     1     -46.993  30.557  20.932  1.00  0.00    -0.219 NA
ATOM     49  H   UNL     1     -45.414  31.208  22.089  1.00  0.00     0.106 H 
BRANCH  46  50
ATOM     50  N   UNL     1     -48.806  29.847  19.657  1.00  0.00    -0.383 N 
ATOM     51  H   UNL     1     -48.108  29.516  19.003  1.00  0.00     0.158 HD
ATOM     52  H   UNL     1     -49.535  30.447  19.290  1.00  0.00     0.158 HD
ENDBRANCH  46  50
ENDBRANCH  29  38
BRANCH  32  53
ATOM     53  O   UNL     1     -47.878  30.632  27.306  1.00  0.00    -0.388 OA
ATOM     54  H   UNL     1     -47.277  29.857  27.266  1.00  0.00     0.211 HD
ENDBRANCH  32  53
ENDBRANCH   1  25
TORSDOF 8
ENDMDL
MODEL 7
REMARK VINA RESULT:      -9.3      1.925      2.818
REMARK SMILES Nc1ccc2ccc(CC[C@H]3C[C@@H](n4cc(Br)c5c(N)ncnc54)[C@H](O)[C@@H]3O)cc2n1
REMARK SMILES IDX 10 1 9 4 8 7 2 8 3 9 31 10 4 11 30 13 5 14 29 16 6 17 7 19
REMARK SMILES IDX 1 22 11 25 12 26 27 27 13 29 25 32 28 36 14 38 15 39 24 40
REMARK SMILES IDX 16 41 18 43 23 44 17 45 19 46 22 47 21 48 20 50 26 53
REMARK H PARENT 10 2 10 3 9 5 9 6 3 12 4 15 29 18 6 20 7 21 1 23 1 24 11 28
REMARK H PARENT 12 30 12 31 27 33 13 34 25 35 28 37 15 42 22 49 20 51 20 52
REMARK H PARENT 26 54
REMARK Flexibility Score: inf
ROOT
ATOM      1  C   UNL     1     -47.262  36.179  28.600  1.00  0.00    -0.044 C 
ATOM      2  H   UNL     1     -47.109  35.120  28.847  1.00  0.00     0.027 H 
ATOM      3  H   UNL     1     -48.035  36.545  29.287  1.00  0.00     0.027 H 
ENDROOT
BRANCH   1   4
ATOM      4  C   UNL     1     -47.758  36.295  27.155  1.00  0.00    -0.027 C 
ATOM      5  H   UNL     1     -47.032  36.854  26.551  1.00  0.00     0.032 H 
ATOM      6  H   UNL     1     -48.693  36.866  27.112  1.00  0.00     0.032 H 
BRANCH   4   7
ATOM      7  C   UNL     1     -47.988  34.937  26.540  1.00  0.00    -0.046 A 
ATOM      8  C   UNL     1     -46.327  31.347  23.890  1.00  0.00     0.124 A 
ATOM      9  C   UNL     1     -47.513  30.634  24.007  1.00  0.00    -0.019 A 
ATOM     10  N   UNL     1     -46.149  32.546  24.465  1.00  0.00    -0.231 NA
ATOM     11  C   UNL     1     -48.557  31.184  24.744  1.00  0.00    -0.049 A 
ATOM     12  H   UNL     1     -47.631  29.666  23.534  1.00  0.00     0.066 H 
ATOM     13  C   UNL     1     -47.153  33.082  25.181  1.00  0.00     0.073 A 
ATOM     14  C   UNL     1     -48.391  32.433  25.349  1.00  0.00     0.000 A 
ATOM     15  H   UNL     1     -49.490  30.636  24.842  1.00  0.00     0.063 H 
ATOM     16  C   UNL     1     -46.978  34.323  25.781  1.00  0.00    -0.033 A 
ATOM     17  C   UNL     1     -49.413  33.035  26.103  1.00  0.00    -0.053 A 
ATOM     18  H   UNL     1     -46.020  34.822  25.647  1.00  0.00     0.065 H 
ATOM     19  C   UNL     1     -49.212  34.282  26.693  1.00  0.00    -0.058 A 
ATOM     20  H   UNL     1     -50.371  32.535  26.233  1.00  0.00     0.063 H 
ATOM     21  H   UNL     1     -50.015  34.736  27.269  1.00  0.00     0.063 H 
BRANCH   8  22
ATOM     22  N   UNL     1     -45.262  30.816  23.156  1.00  0.00    -0.384 N 
ATOM     23  H   UNL     1     -44.927  29.969  23.605  1.00  0.00     0.158 HD
ATOM     24  H   UNL     1     -45.577  30.578  22.221  1.00  0.00     0.158 HD
ENDBRANCH   8  22
ENDBRANCH   4   7
ENDBRANCH   1   4
BRANCH   1  25
ATOM     25  C   UNL     1     -45.953  36.940  28.835  1.00  0.00    -0.010 C 
ATOM     26  C   UNL     1     -45.436  37.692  27.606  1.00  0.00    -0.024 C 
ATOM     27  C   UNL     1     -46.099  38.061  29.867  1.00  0.00     0.085 C 
ATOM     28  H   UNL     1     -45.194  36.224  29.179  1.00  0.00     0.033 H 
ATOM     29  C   UNL     1     -44.493  38.775  28.169  1.00  0.00     0.064 C 
ATOM     30  H   UNL     1     -46.268  38.127  27.039  1.00  0.00     0.029 H 
ATOM     31  H   UNL     1     -44.899  37.023  26.924  1.00  0.00     0.029 H 
ATOM     32  C   UNL     1     -44.827  38.900  29.667  1.00  0.00     0.101 C 
ATOM     33  H   UNL     1     -46.995  38.663  29.682  1.00  0.00     0.063 H 
ATOM     34  H   UNL     1     -43.460  38.414  28.063  1.00  0.00     0.056 H 
ATOM     35  H   UNL     1     -44.955  39.925  30.025  1.00  0.00     0.065 H 
BRANCH  27  36
ATOM     36  O   UNL     1     -46.145  37.555  31.198  1.00  0.00    -0.390 OA
ATOM     37  H   UNL     1     -46.834  36.866  31.219  1.00  0.00     0.211 HD
ENDBRANCH  27  36
BRANCH  29  38
ATOM     38  N   UNL     1     -44.558  40.030  27.437  1.00  0.00    -0.325 N 
ATOM     39  C   UNL     1     -43.462  40.719  26.977  1.00  0.00     0.021 A 
ATOM     40  C   UNL     1     -45.703  40.712  27.093  1.00  0.00     0.146 A 
ATOM     41  C   UNL     1     -43.924  41.843  26.335  1.00  0.00     0.048 A 
ATOM     42  H   UNL     1     -42.455  40.357  27.144  1.00  0.00     0.083 H 
ATOM     43  C   UNL     1     -45.339  41.859  26.393  1.00  0.00     0.075 A 
ATOM     44  N   UNL     1     -46.956  40.323  27.387  1.00  0.00    -0.218 NA
ATOM     45  Br  UNL     1     -42.848  43.145  25.518  1.00  0.00    -0.048 Br
ATOM     46  C   UNL     1     -46.386  42.683  25.955  1.00  0.00     0.137 A 
ATOM     47  C   UNL     1     -47.868  41.190  26.918  1.00  0.00     0.120 A 
ATOM     48  N   UNL     1     -47.656  42.331  26.238  1.00  0.00    -0.219 NA
ATOM     49  H   UNL     1     -48.907  40.942  27.112  1.00  0.00     0.106 H 
BRANCH  46  50
ATOM     50  N   UNL     1     -46.209  43.862  25.249  1.00  0.00    -0.383 N 
ATOM     51  H   UNL     1     -45.409  43.883  24.630  1.00  0.00     0.158 HD
ATOM     52  H   UNL     1     -46.362  44.674  25.835  1.00  0.00     0.158 HD
ENDBRANCH  46  50
ENDBRANCH  29  38
BRANCH  32  53
ATOM     53  O   UNL     1     -43.759  38.322  30.439  1.00  0.00    -0.388 OA
ATOM     54  H   UNL     1     -43.517  39.024  31.081  1.00  0.00     0.211 HD
ENDBRANCH  32  53
ENDBRANCH   1  25
TORSDOF 8
ENDMDL
