MODEL 1
REMARK VINA RESULT:      -8.8      0.000      0.000
REMARK SMILES CCc1cc(NCCOC)c2ncc(OCc3cncc(-n4cc([C@@H]5CCCO5)c5c(N)ncnc54)c3)cc2n1
REMARK SMILES IDX 3 1 4 2 5 3 11 4 12 5 13 6 14 7 38 8 39 9 40 10 2 14 1 17
REMARK SMILES IDX 6 21 7 23 8 26 9 29 10 30 15 34 16 35 17 38 18 39 37 40
REMARK SMILES IDX 19 41 21 43 20 45 22 47 23 48 36 49 24 50 30 52 35 53 31 54
REMARK SMILES IDX 34 55 33 56 25 58 26 59 29 60 27 62 28 65 32 70
REMARK H PARENT 4 11 13 12 38 13 2 15 2 16 1 18 1 19 1 20 6 22 7 24 7 25 8 27
REMARK H PARENT 8 28 10 31 10 32 10 33 16 36 16 37 18 42 37 44 20 46 23 51
REMARK H PARENT 34 57 25 61 26 63 26 64 27 66 27 67 28 68 28 69 32 71 32 72
REMARK Flexibility Score: inf
ROOT
ATOM      1  C   UNL     1     -48.743  28.780  24.991  1.00  0.00     0.043 A 
ATOM      2  C   UNL     1     -48.520  28.685  23.625  1.00  0.00    -0.015 A 
ATOM      3  C   UNL     1     -47.870  29.733  22.968  1.00  0.00     0.064 A 
ATOM      4  C   UNL     1     -47.419  30.844  23.696  1.00  0.00     0.112 A 
ATOM      5  N   UNL     1     -46.765  31.859  23.074  1.00  0.00    -0.249 NA
ATOM      6  C   UNL     1     -46.335  32.891  23.835  1.00  0.00     0.070 A 
ATOM      7  C   UNL     1     -46.551  32.978  25.197  1.00  0.00     0.140 A 
ATOM      8  C   UNL     1     -47.263  31.943  25.801  1.00  0.00     0.010 A 
ATOM      9  C   UNL     1     -47.698  30.846  25.077  1.00  0.00     0.095 A 
ATOM     10  N   UNL     1     -48.345  29.849  25.717  1.00  0.00    -0.251 NA
ATOM     11  H   UNL     1     -48.818  27.795  23.082  1.00  0.00     0.066 H 
ATOM     12  H   UNL     1     -45.804  33.651  23.275  1.00  0.00     0.088 H 
ATOM     13  H   UNL     1     -47.453  31.975  26.871  1.00  0.00     0.069 H 
ENDROOT
BRANCH   1  14
ATOM     14  C   UNL     1     -49.413  27.656  25.738  1.00  0.00    -0.013 C 
ATOM     15  H   UNL     1     -50.395  27.994  26.090  1.00  0.00     0.033 H 
ATOM     16  H   UNL     1     -49.596  26.816  25.059  1.00  0.00     0.033 H 
BRANCH  14  17
ATOM     17  C   UNL     1     -48.581  27.198  26.926  1.00  0.00    -0.060 C 
ATOM     18  H   UNL     1     -49.153  27.257  27.858  1.00  0.00     0.023 H 
ATOM     19  H   UNL     1     -47.693  27.828  27.033  1.00  0.00     0.023 H 
ATOM     20  H   UNL     1     -48.249  26.162  26.801  1.00  0.00     0.023 H 
ENDBRANCH  14  17
ENDBRANCH   1  14
BRANCH   3  21
ATOM     21  N   UNL     1     -47.605  29.653  21.570  1.00  0.00    -0.381 N 
ATOM     22  H   UNL     1     -47.008  30.461  21.335  1.00  0.00     0.160 HD
BRANCH  21  23
ATOM     23  C   UNL     1     -48.786  29.665  20.691  1.00  0.00     0.038 C 
ATOM     24  H   UNL     1     -48.589  28.949  19.885  1.00  0.00     0.051 H 
ATOM     25  H   UNL     1     -49.685  29.321  21.213  1.00  0.00     0.051 H 
BRANCH  23  26
ATOM     26  C   UNL     1     -49.021  31.051  20.076  1.00  0.00     0.063 C 
ATOM     27  H   UNL     1     -48.065  31.469  19.742  1.00  0.00     0.059 H 
ATOM     28  H   UNL     1     -49.698  30.986  19.216  1.00  0.00     0.059 H 
BRANCH  26  29
ATOM     29  O   UNL     1     -49.577  31.920  21.071  1.00  0.00    -0.383 OA
BRANCH  29  30
ATOM     30  C   UNL     1     -50.876  31.498  21.464  1.00  0.00     0.036 C 
ATOM     31  H   UNL     1     -51.641  32.081  20.943  1.00  0.00     0.053 H 
ATOM     32  H   UNL     1     -51.000  31.594  22.547  1.00  0.00     0.053 H 
ATOM     33  H   UNL     1     -50.994  30.446  21.191  1.00  0.00     0.053 H 
ENDBRANCH  29  30
ENDBRANCH  26  29
ENDBRANCH  23  26
ENDBRANCH  21  23
ENDBRANCH   3  21
BRANCH   7  34
ATOM     34  O   UNL     1     -46.128  33.967  26.037  1.00  0.00    -0.487 OA
BRANCH  34  35
ATOM     35  C   UNL     1     -46.932  34.269  27.184  1.00  0.00     0.115 C 
ATOM     36  H   UNL     1     -46.359  33.926  28.054  1.00  0.00     0.076 H 
ATOM     37  H   UNL     1     -47.854  33.677  27.170  1.00  0.00     0.076 H 
BRANCH  35  38
ATOM     38  C   UNL     1     -47.218  35.738  27.386  1.00  0.00     0.010 A 
ATOM     39  C   UNL     1     -48.528  36.172  27.551  1.00  0.00     0.034 A 
ATOM     40  C   UNL     1     -46.210  36.709  27.458  1.00  0.00    -0.028 A 
ATOM     41  N   UNL     1     -48.878  37.462  27.748  1.00  0.00    -0.262 NA
ATOM     42  H   UNL     1     -49.363  35.477  27.531  1.00  0.00     0.084 H 
ATOM     43  C   UNL     1     -46.529  38.059  27.619  1.00  0.00     0.066 A 
ATOM     44  H   UNL     1     -45.176  36.384  27.397  1.00  0.00     0.065 H 
ATOM     45  C   UNL     1     -47.875  38.375  27.768  1.00  0.00     0.051 A 
ATOM     46  H   UNL     1     -48.235  39.391  27.881  1.00  0.00     0.086 H 
BRANCH  43  47
ATOM     47  N   UNL     1     -45.528  39.079  27.615  1.00  0.00    -0.299 N 
ATOM     48  C   UNL     1     -45.356  40.026  26.616  1.00  0.00     0.018 A 
ATOM     49  C   UNL     1     -44.543  39.307  28.576  1.00  0.00     0.150 A 
ATOM     50  C   UNL     1     -44.291  40.856  26.918  1.00  0.00     0.012 A 
ATOM     51  H   UNL     1     -46.029  40.061  25.770  1.00  0.00     0.083 H 
ATOM     52  C   UNL     1     -43.766  40.385  28.166  1.00  0.00     0.067 A 
ATOM     53  N   UNL     1     -44.333  38.588  29.697  1.00  0.00    -0.218 NA
ATOM     54  C   UNL     1     -42.697  40.752  29.003  1.00  0.00     0.136 A 
ATOM     55  C   UNL     1     -43.284  39.022  30.408  1.00  0.00     0.120 A 
ATOM     56  N   UNL     1     -42.471  40.051  30.128  1.00  0.00    -0.219 NA
ATOM     57  H   UNL     1     -43.066  38.474  31.321  1.00  0.00     0.106 H 
BRANCH  50  58
ATOM     58  C   UNL     1     -43.762  42.035  26.141  1.00  0.00     0.085 C 
ATOM     59  C   UNL     1     -44.043  43.410  26.733  1.00  0.00    -0.020 C 
ATOM     60  O   UNL     1     -44.355  42.061  24.821  1.00  0.00    -0.373 OA
ATOM     61  H   UNL     1     -42.680  41.899  26.020  1.00  0.00     0.066 H 
ATOM     62  C   UNL     1     -45.374  43.765  26.121  1.00  0.00    -0.027 C 
ATOM     63  H   UNL     1     -43.289  44.120  26.367  1.00  0.00     0.030 H 
ATOM     64  H   UNL     1     -44.033  43.461  27.824  1.00  0.00     0.030 H 
ATOM     65  C   UNL     1     -45.239  43.188  24.729  1.00  0.00     0.048 C 
ATOM     66  H   UNL     1     -46.185  43.263  26.660  1.00  0.00     0.029 H 
ATOM     67  H   UNL     1     -45.583  44.838  26.116  1.00  0.00     0.029 H 
ATOM     68  H   UNL     1     -44.784  43.911  24.043  1.00  0.00     0.057 H 
ATOM     69  H   UNL     1     -46.198  42.870  24.312  1.00  0.00     0.057 H 
ENDBRANCH  50  58
BRANCH  54  70
ATOM     70  N   UNL     1     -41.819  41.792  28.718  1.00  0.00    -0.383 N 
ATOM     71  H   UNL     1     -42.077  42.655  29.196  1.00  0.00     0.158 HD
ATOM     72  H   UNL     1     -41.699  41.873  27.716  1.00  0.00     0.158 HD
ENDBRANCH  54  70
ENDBRANCH  43  47
ENDBRANCH  35  38
ENDBRANCH  34  35
ENDBRANCH   7  34
TORSDOF 13
ENDMDL
MODEL 2
REMARK VINA RESULT:      -8.8      1.874      2.886
REMARK SMILES CCc1cc(NCCOC)c2ncc(OCc3cncc(-n4cc([C@@H]5CCCO5)c5c(N)ncnc54)c3)cc2n1
REMARK SMILES IDX 3 1 4 2 5 3 11 4 12 5 13 6 14 7 38 8 39 9 40 10 2 14 1 17
REMARK SMILES IDX 6 21 7 23 8 26 9 29 10 30 15 34 16 35 17 38 18 39 37 40
REMARK SMILES IDX 19 41 21 43 20 45 22 47 23 48 36 49 24 50 30 52 35 53 31 54
REMARK SMILES IDX 34 55 33 56 25 58 26 59 29 60 27 62 28 65 32 70
REMARK H PARENT 4 11 13 12 38 13 2 15 2 16 1 18 1 19 1 20 6 22 7 24 7 25 8 27
REMARK H PARENT 8 28 10 31 10 32 10 33 16 36 16 37 18 42 37 44 20 46 23 51
REMARK H PARENT 34 57 25 61 26 63 26 64 27 66 27 67 28 68 28 69 32 71 32 72
REMARK Flexibility Score: inf
ROOT
ATOM      1  C   UNL     1     -46.309  30.404  22.933  1.00  0.00     0.043 A 
ATOM      2  C   UNL     1     -47.522  29.766  23.151  1.00  0.00    -0.015 A 
ATOM      3  C   UNL     1     -48.423  30.314  24.069  1.00  0.00     0.064 A 
ATOM      4  C   UNL     1     -48.109  31.513  24.727  1.00  0.00     0.112 A 
ATOM      5  N   UNL     1     -48.986  32.068  25.603  1.00  0.00    -0.249 NA
ATOM      6  C   UNL     1     -48.635  33.237  26.188  1.00  0.00     0.070 A 
ATOM      7  C   UNL     1     -47.430  33.874  25.962  1.00  0.00     0.140 A 
ATOM      8  C   UNL     1     -46.533  33.257  25.091  1.00  0.00     0.010 A 
ATOM      9  C   UNL     1     -46.852  32.079  24.438  1.00  0.00     0.095 A 
ATOM     10  N   UNL     1     -45.967  31.545  23.571  1.00  0.00    -0.251 NA
ATOM     11  H   UNL     1     -47.780  28.874  22.591  1.00  0.00     0.066 H 
ATOM     12  H   UNL     1     -49.391  33.630  26.857  1.00  0.00     0.088 H 
ATOM     13  H   UNL     1     -45.574  33.728  24.887  1.00  0.00     0.069 H 
ENDROOT
BRANCH   1  14
ATOM     14  C   UNL     1     -45.327  29.860  21.928  1.00  0.00    -0.013 C 
ATOM     15  H   UNL     1     -45.865  29.586  21.012  1.00  0.00     0.033 H 
ATOM     16  H   UNL     1     -44.611  30.641  21.649  1.00  0.00     0.033 H 
BRANCH  14  17
ATOM     17  C   UNL     1     -44.591  28.642  22.464  1.00  0.00    -0.060 C 
ATOM     18  H   UNL     1     -45.259  27.778  22.548  1.00  0.00     0.023 H 
ATOM     19  H   UNL     1     -44.183  28.853  23.458  1.00  0.00     0.023 H 
ATOM     20  H   UNL     1     -43.760  28.362  21.810  1.00  0.00     0.023 H 
ENDBRANCH  14  17
ENDBRANCH   1  14
BRANCH   3  21
ATOM     21  N   UNL     1     -49.686  29.696  24.294  1.00  0.00    -0.381 N 
ATOM     22  H   UNL     1     -49.843  29.707  25.314  1.00  0.00     0.160 HD
BRANCH  21  23
ATOM     23  C   UNL     1     -49.819  28.312  23.809  1.00  0.00     0.038 C 
ATOM     24  H   UNL     1     -50.242  28.369  22.800  1.00  0.00     0.051 H 
ATOM     25  H   UNL     1     -48.847  27.816  23.723  1.00  0.00     0.051 H 
BRANCH  23  26
ATOM     26  C   UNL     1     -50.765  27.489  24.695  1.00  0.00     0.063 C 
ATOM     27  H   UNL     1     -50.701  27.848  25.729  1.00  0.00     0.059 H 
ATOM     28  H   UNL     1     -51.801  27.584  24.352  1.00  0.00     0.059 H 
BRANCH  26  29
ATOM     29  O   UNL     1     -50.363  26.114  24.663  1.00  0.00    -0.383 OA
BRANCH  29  30
ATOM     30  C   UNL     1     -50.054  25.630  25.963  1.00  0.00     0.036 C 
ATOM     31  H   UNL     1     -48.972  25.519  26.082  1.00  0.00     0.053 H 
ATOM     32  H   UNL     1     -50.555  24.675  26.146  1.00  0.00     0.053 H 
ATOM     33  H   UNL     1     -50.412  26.359  26.695  1.00  0.00     0.053 H 
ENDBRANCH  29  30
ENDBRANCH  26  29
ENDBRANCH  23  26
ENDBRANCH  21  23
ENDBRANCH   3  21
BRANCH   7  34
ATOM     34  O   UNL     1     -47.015  35.062  26.488  1.00  0.00    -0.487 OA
BRANCH  34  35
ATOM     35  C   UNL     1     -47.740  35.598  27.602  1.00  0.00     0.115 C 
ATOM     36  H   UNL     1     -47.243  35.212  28.501  1.00  0.00     0.076 H 
ATOM     37  H   UNL     1     -48.761  35.199  27.620  1.00  0.00     0.076 H 
BRANCH  35  38
ATOM     38  C   UNL     1     -47.732  37.105  27.696  1.00  0.00     0.010 A 
ATOM     39  C   UNL     1     -48.910  37.788  27.971  1.00  0.00     0.034 A 
ATOM     40  C   UNL     1     -46.566  37.871  27.559  1.00  0.00    -0.028 A 
ATOM     41  N   UNL     1     -48.996  39.132  28.085  1.00  0.00    -0.262 NA
ATOM     42  H   UNL     1     -49.851  37.264  28.113  1.00  0.00     0.084 H 
ATOM     43  C   UNL     1     -46.616  39.265  27.629  1.00  0.00     0.066 A 
ATOM     44  H   UNL     1     -45.623  37.353  27.410  1.00  0.00     0.065 H 
ATOM     45  C   UNL     1     -47.853  39.838  27.901  1.00  0.00     0.051 A 
ATOM     46  H   UNL     1     -48.007  40.910  27.959  1.00  0.00     0.086 H 
BRANCH  43  47
ATOM     47  N   UNL     1     -45.458  40.075  27.412  1.00  0.00    -0.299 N 
ATOM     48  C   UNL     1     -45.260  40.911  26.323  1.00  0.00     0.018 A 
ATOM     49  C   UNL     1     -44.324  40.169  28.218  1.00  0.00     0.150 A 
ATOM     50  C   UNL     1     -44.032  41.542  26.418  1.00  0.00     0.012 A 
ATOM     51  H   UNL     1     -46.026  41.023  25.569  1.00  0.00     0.083 H 
ATOM     52  C   UNL     1     -43.431  41.055  27.624  1.00  0.00     0.067 A 
ATOM     53  N   UNL     1     -44.092  39.491  29.360  1.00  0.00    -0.218 NA
ATOM     54  C   UNL     1     -42.208  41.262  28.286  1.00  0.00     0.136 A 
ATOM     55  C   UNL     1     -42.894  39.761  29.894  1.00  0.00     0.120 A 
ATOM     56  N   UNL     1     -41.956  40.599  29.429  1.00  0.00    -0.219 NA
ATOM     57  H   UNL     1     -42.653  39.237  30.816  1.00  0.00     0.106 H 
BRANCH  50  58
ATOM     58  C   UNL     1     -43.414  42.550  25.483  1.00  0.00     0.085 C 
ATOM     59  C   UNL     1     -43.555  44.013  25.885  1.00  0.00    -0.020 C 
ATOM     60  O   UNL     1     -44.029  42.454  24.176  1.00  0.00    -0.373 OA
ATOM     61  H   UNL     1     -42.351  42.299  25.373  1.00  0.00     0.066 H 
ATOM     62  C   UNL     1     -44.861  44.405  25.240  1.00  0.00    -0.027 C 
ATOM     63  H   UNL     1     -42.748  44.594  25.420  1.00  0.00     0.030 H 
ATOM     64  H   UNL     1     -43.519  44.209  26.959  1.00  0.00     0.030 H 
ATOM     65  C   UNL     1     -44.808  43.635  23.940  1.00  0.00     0.048 C 
ATOM     66  H   UNL     1     -45.703  44.057  25.849  1.00  0.00     0.029 H 
ATOM     67  H   UNL     1     -44.971  45.482  25.092  1.00  0.00     0.029 H 
ATOM     68  H   UNL     1     -44.303  44.214  23.158  1.00  0.00     0.057 H 
ATOM     69  H   UNL     1     -45.800  43.355  23.577  1.00  0.00     0.057 H 
ENDBRANCH  50  58
BRANCH  54  70
ATOM     70  N   UNL     1     -41.206  42.098  27.806  1.00  0.00    -0.383 N 
ATOM     71  H   UNL     1     -41.582  42.950  27.389  1.00  0.00     0.158 HD
ATOM     72  H   UNL     1     -40.575  41.571  27.214  1.00  0.00     0.158 HD
ENDBRANCH  54  70
ENDBRANCH  43  47
ENDBRANCH  35  38
ENDBRANCH  34  35
ENDBRANCH   7  34
TORSDOF 13
ENDMDL
MODEL 3
REMARK VINA RESULT:      -8.4      2.186     11.737
REMARK SMILES CCc1cc(NCCOC)c2ncc(OCc3cncc(-n4cc([C@@H]5CCCO5)c5c(N)ncnc54)c3)cc2n1
REMARK SMILES IDX 3 1 4 2 5 3 11 4 12 5 13 6 14 7 38 8 39 9 40 10 2 14 1 17
REMARK SMILES IDX 6 21 7 23 8 26 9 29 10 30 15 34 16 35 17 38 18 39 37 40
REMARK SMILES IDX 19 41 21 43 20 45 22 47 23 48 36 49 24 50 30 52 35 53 31 54
REMARK SMILES IDX 34 55 33 56 25 58 26 59 29 60 27 62 28 65 32 70
REMARK H PARENT 4 11 13 12 38 13 2 15 2 16 1 18 1 19 1 20 6 22 7 24 7 25 8 27
REMARK H PARENT 8 28 10 31 10 32 10 33 16 36 16 37 18 42 37 44 20 46 23 51
REMARK H PARENT 34 57 25 61 26 63 26 64 27 66 27 67 28 68 28 69 32 71 32 72
REMARK Flexibility Score: inf
ROOT
ATOM      1  C   UNL     1     -43.084  41.489  28.171  1.00  0.00     0.043 A 
ATOM      2  C   UNL     1     -43.680  42.210  27.146  1.00  0.00    -0.015 A 
ATOM      3  C   UNL     1     -44.747  41.641  26.445  1.00  0.00     0.064 A 
ATOM      4  C   UNL     1     -45.226  40.372  26.808  1.00  0.00     0.112 A 
ATOM      5  N   UNL     1     -46.277  39.817  26.151  1.00  0.00    -0.249 NA
ATOM      6  C   UNL     1     -46.706  38.603  26.563  1.00  0.00     0.070 A 
ATOM      7  C   UNL     1     -46.115  37.891  27.591  1.00  0.00     0.140 A 
ATOM      8  C   UNL     1     -45.011  38.467  28.217  1.00  0.00     0.010 A 
ATOM      9  C   UNL     1     -44.550  39.723  27.860  1.00  0.00     0.095 A 
ATOM     10  N   UNL     1     -43.505  40.255  28.527  1.00  0.00    -0.251 NA
ATOM     11  H   UNL     1     -43.343  43.214  26.914  1.00  0.00     0.066 H 
ATOM     12  H   UNL     1     -47.559  38.233  26.008  1.00  0.00     0.088 H 
ATOM     13  H   UNL     1     -44.520  37.939  29.030  1.00  0.00     0.069 H 
ENDROOT
BRANCH   1  14
ATOM     14  C   UNL     1     -41.953  42.084  28.968  1.00  0.00    -0.013 C 
ATOM     15  H   UNL     1     -41.139  42.361  28.286  1.00  0.00     0.033 H 
ATOM     16  H   UNL     1     -42.285  43.011  29.450  1.00  0.00     0.033 H 
BRANCH  14  17
ATOM     17  C   UNL     1     -41.427  41.110  30.010  1.00  0.00    -0.060 C 
ATOM     18  H   UNL     1     -40.930  41.636  30.832  1.00  0.00     0.023 H 
ATOM     19  H   UNL     1     -40.702  40.426  29.558  1.00  0.00     0.023 H 
ATOM     20  H   UNL     1     -42.238  40.510  30.437  1.00  0.00     0.023 H 
ENDBRANCH  14  17
ENDBRANCH   1  14
BRANCH   3  21
ATOM     21  N   UNL     1     -45.395  42.367  25.405  1.00  0.00    -0.381 N 
ATOM     22  H   UNL     1     -44.662  42.639  24.732  1.00  0.00     0.160 HD
BRANCH  21  23
ATOM     23  C   UNL     1     -46.126  43.575  25.824  1.00  0.00     0.038 C 
ATOM     24  H   UNL     1     -45.545  44.031  26.634  1.00  0.00     0.051 H 
ATOM     25  H   UNL     1     -46.188  44.313  25.018  1.00  0.00     0.051 H 
BRANCH  23  26
ATOM     26  C   UNL     1     -47.527  43.236  26.350  1.00  0.00     0.063 C 
ATOM     27  H   UNL     1     -47.807  42.229  26.020  1.00  0.00     0.059 H 
ATOM     28  H   UNL     1     -47.550  43.267  27.445  1.00  0.00     0.059 H 
BRANCH  26  29
ATOM     29  O   UNL     1     -48.471  44.172  25.815  1.00  0.00    -0.383 OA
BRANCH  29  30
ATOM     30  C   UNL     1     -47.923  44.898  24.723  1.00  0.00     0.036 C 
ATOM     31  H   UNL     1     -46.831  44.826  24.726  1.00  0.00     0.053 H 
ATOM     32  H   UNL     1     -48.233  45.946  24.763  1.00  0.00     0.053 H 
ATOM     33  H   UNL     1     -48.297  44.457  23.795  1.00  0.00     0.053 H 
ENDBRANCH  29  30
ENDBRANCH  26  29
ENDBRANCH  23  26
ENDBRANCH  21  23
ENDBRANCH   3  21
BRANCH   7  34
ATOM     34  O   UNL     1     -46.503  36.679  28.082  1.00  0.00    -0.487 OA
BRANCH  34  35
ATOM     35  C   UNL     1     -46.126  35.503  27.355  1.00  0.00     0.115 C 
ATOM     36  H   UNL     1     -45.536  34.893  28.050  1.00  0.00     0.076 H 
ATOM     37  H   UNL     1     -45.454  35.765  26.530  1.00  0.00     0.076 H 
BRANCH  35  38
ATOM     38  C   UNL     1     -47.282  34.655  26.882  1.00  0.00     0.010 A 
ATOM     39  C   UNL     1     -48.586  35.097  27.065  1.00  0.00     0.034 A 
ATOM     40  C   UNL     1     -47.109  33.435  26.214  1.00  0.00    -0.028 A 
ATOM     41  N   UNL     1     -49.680  34.413  26.665  1.00  0.00    -0.262 NA
ATOM     42  H   UNL     1     -48.801  36.044  27.554  1.00  0.00     0.084 H 
ATOM     43  C   UNL     1     -48.212  32.674  25.820  1.00  0.00     0.066 A 
ATOM     44  H   UNL     1     -46.098  33.101  26.002  1.00  0.00     0.065 H 
ATOM     45  C   UNL     1     -49.470  33.216  26.063  1.00  0.00     0.051 A 
ATOM     46  H   UNL     1     -50.392  32.703  25.814  1.00  0.00     0.086 H 
BRANCH  43  47
ATOM     47  N   UNL     1     -48.067  31.389  25.210  1.00  0.00    -0.299 N 
ATOM     48  C   UNL     1     -48.613  30.209  25.694  1.00  0.00     0.018 A 
ATOM     49  C   UNL     1     -47.355  31.073  24.055  1.00  0.00     0.150 A 
ATOM     50  C   UNL     1     -48.273  29.150  24.872  1.00  0.00     0.012 A 
ATOM     51  H   UNL     1     -49.236  30.213  26.578  1.00  0.00     0.083 H 
ATOM     52  C   UNL     1     -47.457  29.704  23.832  1.00  0.00     0.067 A 
ATOM     53  N   UNL     1     -46.642  31.926  23.292  1.00  0.00    -0.218 NA
ATOM     54  C   UNL     1     -46.777  29.190  22.714  1.00  0.00     0.136 A 
ATOM     55  C   UNL     1     -46.030  31.323  22.264  1.00  0.00     0.120 A 
ATOM     56  N   UNL     1     -46.062  30.023  21.937  1.00  0.00    -0.219 NA
ATOM     57  H   UNL     1     -45.437  31.965  21.618  1.00  0.00     0.106 H 
BRANCH  50  58
ATOM     58  C   UNL     1     -48.664  27.699  24.991  1.00  0.00     0.085 C 
ATOM     59  C   UNL     1     -49.228  27.263  26.337  1.00  0.00    -0.020 C 
ATOM     60  O   UNL     1     -47.507  26.856  24.772  1.00  0.00    -0.373 OA
ATOM     61  H   UNL     1     -49.392  27.482  24.199  1.00  0.00     0.066 H 
ATOM     62  C   UNL     1     -47.989  26.860  27.096  1.00  0.00    -0.027 C 
ATOM     63  H   UNL     1     -49.855  26.374  26.195  1.00  0.00     0.030 H 
ATOM     64  H   UNL     1     -49.836  28.010  26.854  1.00  0.00     0.030 H 
ATOM     65  C   UNL     1     -47.155  26.220  26.009  1.00  0.00     0.048 C 
ATOM     66  H   UNL     1     -47.480  27.747  27.489  1.00  0.00     0.029 H 
ATOM     67  H   UNL     1     -48.187  26.184  27.932  1.00  0.00     0.029 H 
ATOM     68  H   UNL     1     -47.384  25.153  25.911  1.00  0.00     0.057 H 
ATOM     69  H   UNL     1     -46.081  26.329  26.185  1.00  0.00     0.057 H 
ENDBRANCH  50  58
BRANCH  54  70
ATOM     70  N   UNL     1     -46.765  27.841  22.374  1.00  0.00    -0.383 N 
ATOM     71  H   UNL     1     -47.678  27.517  22.054  1.00  0.00     0.158 HD
ATOM     72  H   UNL     1     -46.356  27.302  23.127  1.00  0.00     0.158 HD
ENDBRANCH  54  70
ENDBRANCH  43  47
ENDBRANCH  35  38
ENDBRANCH  34  35
ENDBRANCH   7  34
TORSDOF 13
ENDMDL
MODEL 4
REMARK VINA RESULT:      -8.3      1.576      2.276
REMARK SMILES CCc1cc(NCCOC)c2ncc(OCc3cncc(-n4cc([C@@H]5CCCO5)c5c(N)ncnc54)c3)cc2n1
REMARK SMILES IDX 3 1 4 2 5 3 11 4 12 5 13 6 14 7 38 8 39 9 40 10 2 14 1 17
REMARK SMILES IDX 6 21 7 23 8 26 9 29 10 30 15 34 16 35 17 38 18 39 37 40
REMARK SMILES IDX 19 41 21 43 20 45 22 47 23 48 36 49 24 50 30 52 35 53 31 54
REMARK SMILES IDX 34 55 33 56 25 58 26 59 29 60 27 62 28 65 32 70
REMARK H PARENT 4 11 13 12 38 13 2 15 2 16 1 18 1 19 1 20 6 22 7 24 7 25 8 27
REMARK H PARENT 8 28 10 31 10 32 10 33 16 36 16 37 18 42 37 44 20 46 23 51
REMARK H PARENT 34 57 25 61 26 63 26 64 27 66 27 67 28 68 28 69 32 71 32 72
REMARK Flexibility Score: inf
ROOT
ATOM      1  C   UNL     1     -50.615  31.270  23.655  1.00  0.00     0.043 A 
ATOM      2  C   UNL     1     -49.653  30.778  22.785  1.00  0.00    -0.015 A 
ATOM      3  C   UNL     1     -48.303  31.015  23.059  1.00  0.00     0.064 A 
ATOM      4  C   UNL     1     -47.936  31.710  24.221  1.00  0.00     0.112 A 
ATOM      5  N   UNL     1     -46.627  31.927  24.511  1.00  0.00    -0.249 NA
ATOM      6  C   UNL     1     -46.337  32.583  25.658  1.00  0.00     0.070 A 
ATOM      7  C   UNL     1     -47.297  33.065  26.527  1.00  0.00     0.140 A 
ATOM      8  C   UNL     1     -48.633  32.866  26.180  1.00  0.00     0.010 A 
ATOM      9  C   UNL     1     -48.988  32.171  25.037  1.00  0.00     0.095 A 
ATOM     10  N   UNL     1     -50.294  31.966  24.769  1.00  0.00    -0.251 NA
ATOM     11  H   UNL     1     -49.944  30.189  21.923  1.00  0.00     0.066 H 
ATOM     12  H   UNL     1     -45.274  32.701  25.833  1.00  0.00     0.088 H 
ATOM     13  H   UNL     1     -49.418  33.229  26.839  1.00  0.00     0.069 H 
ENDROOT
BRANCH   1  14
ATOM     14  C   UNL     1     -52.077  31.007  23.409  1.00  0.00    -0.013 C 
ATOM     15  H   UNL     1     -52.673  31.618  24.099  1.00  0.00     0.033 H 
ATOM     16  H   UNL     1     -52.347  31.327  22.396  1.00  0.00     0.033 H 
BRANCH  14  17
ATOM     17  C   UNL     1     -52.425  29.540  23.606  1.00  0.00    -0.060 C 
ATOM     18  H   UNL     1     -52.280  28.970  22.682  1.00  0.00     0.023 H 
ATOM     19  H   UNL     1     -53.472  29.436  23.908  1.00  0.00     0.023 H 
ATOM     20  H   UNL     1     -51.801  29.086  24.382  1.00  0.00     0.023 H 
ENDBRANCH  14  17
ENDBRANCH   1  14
BRANCH   3  21
ATOM     21  N   UNL     1     -47.292  30.500  22.197  1.00  0.00    -0.381 N 
ATOM     22  H   UNL     1     -47.501  30.854  21.251  1.00  0.00     0.160 HD
BRANCH  21  23
ATOM     23  C   UNL     1     -47.183  29.032  22.141  1.00  0.00     0.038 C 
ATOM     24  H   UNL     1     -48.142  28.658  21.764  1.00  0.00     0.051 H 
ATOM     25  H   UNL     1     -46.411  28.708  21.436  1.00  0.00     0.051 H 
BRANCH  23  26
ATOM     26  C   UNL     1     -46.929  28.429  23.529  1.00  0.00     0.063 C 
ATOM     27  H   UNL     1     -46.063  27.759  23.482  1.00  0.00     0.059 H 
ATOM     28  H   UNL     1     -46.726  29.216  24.264  1.00  0.00     0.059 H 
BRANCH  26  29
ATOM     29  O   UNL     1     -48.075  27.668  23.930  1.00  0.00    -0.383 OA
BRANCH  29  30
ATOM     30  C   UNL     1     -48.503  28.020  25.238  1.00  0.00     0.036 C 
ATOM     31  H   UNL     1     -49.592  27.943  25.318  1.00  0.00     0.053 H 
ATOM     32  H   UNL     1     -48.177  29.034  25.490  1.00  0.00     0.053 H 
ATOM     33  H   UNL     1     -48.053  27.321  25.948  1.00  0.00     0.053 H 
ENDBRANCH  29  30
ENDBRANCH  26  29
ENDBRANCH  23  26
ENDBRANCH  21  23
ENDBRANCH   3  21
BRANCH   7  34
ATOM     34  O   UNL     1     -47.088  33.709  27.711  1.00  0.00    -0.487 OA
BRANCH  34  35
ATOM     35  C   UNL     1     -46.026  34.669  27.779  1.00  0.00     0.115 C 
ATOM     36  H   UNL     1     -45.414  34.508  26.884  1.00  0.00     0.076 H 
ATOM     37  H   UNL     1     -45.377  34.459  28.638  1.00  0.00     0.076 H 
BRANCH  35  38
ATOM     38  C   UNL     1     -46.475  36.110  27.763  1.00  0.00     0.010 A 
ATOM     39  C   UNL     1     -47.830  36.414  27.816  1.00  0.00     0.034 A 
ATOM     40  C   UNL     1     -45.580  37.188  27.738  1.00  0.00    -0.028 A 
ATOM     41  N   UNL     1     -48.324  37.672  27.818  1.00  0.00    -0.262 NA
ATOM     42  H   UNL     1     -48.586  35.634  27.861  1.00  0.00     0.084 H 
ATOM     43  C   UNL     1     -46.047  38.504  27.696  1.00  0.00     0.066 A 
ATOM     44  H   UNL     1     -44.515  36.975  27.762  1.00  0.00     0.065 H 
ATOM     45  C   UNL     1     -47.425  38.685  27.748  1.00  0.00     0.051 A 
ATOM     46  H   UNL     1     -47.894  39.661  27.703  1.00  0.00     0.086 H 
BRANCH  43  47
ATOM     47  N   UNL     1     -45.159  39.619  27.588  1.00  0.00    -0.299 N 
ATOM     48  C   UNL     1     -45.184  40.564  26.572  1.00  0.00     0.018 A 
ATOM     49  C   UNL     1     -44.113  39.958  28.444  1.00  0.00     0.150 A 
ATOM     50  C   UNL     1     -44.184  41.501  26.764  1.00  0.00     0.012 A 
ATOM     51  H   UNL     1     -45.937  40.520  25.798  1.00  0.00     0.083 H 
ATOM     52  C   UNL     1     -43.493  41.103  27.954  1.00  0.00     0.067 A 
ATOM     53  N   UNL     1     -43.721  39.280  29.542  1.00  0.00    -0.218 NA
ATOM     54  C   UNL     1     -42.390  41.587  28.679  1.00  0.00     0.136 A 
ATOM     55  C   UNL     1     -42.657  39.827  30.143  1.00  0.00     0.120 A 
ATOM     56  N   UNL     1     -41.983  40.929  29.779  1.00  0.00    -0.219 NA
ATOM     57  H   UNL     1     -42.295  39.317  31.032  1.00  0.00     0.106 H 
BRANCH  50  58
ATOM     58  C   UNL     1     -43.856  42.716  25.932  1.00  0.00     0.085 C 
ATOM     59  C   UNL     1     -44.267  44.061  26.518  1.00  0.00    -0.020 C 
ATOM     60  O   UNL     1     -44.531  42.635  24.654  1.00  0.00    -0.373 OA
ATOM     61  H   UNL     1     -42.776  42.711  25.742  1.00  0.00     0.066 H 
ATOM     62  C   UNL     1     -45.668  44.234  25.989  1.00  0.00    -0.027 C 
ATOM     63  H   UNL     1     -43.633  44.849  26.090  1.00  0.00     0.030 H 
ATOM     64  H   UNL     1     -44.195  44.140  27.605  1.00  0.00     0.030 H 
ATOM     65  C   UNL     1     -45.552  43.642  24.602  1.00  0.00     0.048 C 
ATOM     66  H   UNL     1     -46.375  43.649  26.590  1.00  0.00     0.029 H 
ATOM     67  H   UNL     1     -46.009  45.273  25.980  1.00  0.00     0.029 H 
ATOM     68  H   UNL     1     -45.235  44.398  23.875  1.00  0.00     0.057 H 
ATOM     69  H   UNL     1     -46.489  43.198  24.255  1.00  0.00     0.057 H 
ENDBRANCH  50  58
BRANCH  54  70
ATOM     70  N   UNL     1     -41.653  42.706  28.304  1.00  0.00    -0.383 N 
ATOM     71  H   UNL     1     -42.201  43.355  27.739  1.00  0.00     0.158 HD
ATOM     72  H   UNL     1     -40.774  42.415  27.895  1.00  0.00     0.158 HD
ENDBRANCH  54  70
ENDBRANCH  43  47
ENDBRANCH  35  38
ENDBRANCH  34  35
ENDBRANCH   7  34
TORSDOF 13
ENDMDL
MODEL 5
REMARK VINA RESULT:      -8.2      2.289      4.047
REMARK SMILES CCc1cc(NCCOC)c2ncc(OCc3cncc(-n4cc([C@@H]5CCCO5)c5c(N)ncnc54)c3)cc2n1
REMARK SMILES IDX 3 1 4 2 5 3 11 4 12 5 13 6 14 7 38 8 39 9 40 10 2 14 1 17
REMARK SMILES IDX 6 21 7 23 8 26 9 29 10 30 15 34 16 35 17 38 18 39 37 40
REMARK SMILES IDX 19 41 21 43 20 45 22 47 23 48 36 49 24 50 30 52 35 53 31 54
REMARK SMILES IDX 34 55 33 56 25 58 26 59 29 60 27 62 28 65 32 70
REMARK H PARENT 4 11 13 12 38 13 2 15 2 16 1 18 1 19 1 20 6 22 7 24 7 25 8 27
REMARK H PARENT 8 28 10 31 10 32 10 33 16 36 16 37 18 42 37 44 20 46 23 51
REMARK H PARENT 34 57 25 61 26 63 26 64 27 66 27 67 28 68 28 69 32 71 32 72
REMARK Flexibility Score: inf
ROOT
ATOM      1  C   UNL     1     -46.373  31.105  22.125  1.00  0.00     0.043 A 
ATOM      2  C   UNL     1     -47.316  30.133  22.428  1.00  0.00    -0.015 A 
ATOM      3  C   UNL     1     -47.982  30.191  23.656  1.00  0.00     0.064 A 
ATOM      4  C   UNL     1     -47.720  31.244  24.545  1.00  0.00     0.112 A 
ATOM      5  N   UNL     1     -48.378  31.326  25.731  1.00  0.00    -0.249 NA
ATOM      6  C   UNL     1     -48.098  32.377  26.534  1.00  0.00     0.070 A 
ATOM      7  C   UNL     1     -47.164  33.348  26.225  1.00  0.00     0.140 A 
ATOM      8  C   UNL     1     -46.474  33.214  25.022  1.00  0.00     0.010 A 
ATOM      9  C   UNL     1     -46.744  32.177  24.145  1.00  0.00     0.095 A 
ATOM     10  N   UNL     1     -46.079  32.117  22.972  1.00  0.00    -0.251 NA
ATOM     11  H   UNL     1     -47.556  29.359  21.708  1.00  0.00     0.066 H 
ATOM     12  H   UNL     1     -48.674  32.388  27.451  1.00  0.00     0.088 H 
ATOM     13  H   UNL     1     -45.732  33.958  24.743  1.00  0.00     0.069 H 
ENDROOT
BRANCH   1  14
ATOM     14  C   UNL     1     -45.659  31.092  20.799  1.00  0.00    -0.013 C 
ATOM     15  H   UNL     1     -44.680  31.575  20.914  1.00  0.00     0.033 H 
ATOM     16  H   UNL     1     -45.462  30.057  20.493  1.00  0.00     0.033 H 
BRANCH  14  17
ATOM     17  C   UNL     1     -46.456  31.814  19.724  1.00  0.00    -0.060 C 
ATOM     18  H   UNL     1     -47.163  31.138  19.232  1.00  0.00     0.023 H 
ATOM     19  H   UNL     1     -45.783  32.217  18.961  1.00  0.00     0.023 H 
ATOM     20  H   UNL     1     -47.026  32.647  20.147  1.00  0.00     0.023 H 
ENDBRANCH  14  17
ENDBRANCH   1  14
BRANCH   3  21
ATOM     21  N   UNL     1     -48.974  29.222  23.984  1.00  0.00    -0.381 N 
ATOM     22  H   UNL     1     -49.011  29.174  25.013  1.00  0.00     0.160 HD
BRANCH  21  23
ATOM     23  C   UNL     1     -48.747  27.867  23.454  1.00  0.00     0.038 C 
ATOM     24  H   UNL     1     -47.969  27.953  22.686  1.00  0.00     0.051 H 
ATOM     25  H   UNL     1     -48.365  27.188  24.223  1.00  0.00     0.051 H 
BRANCH  23  26
ATOM     26  C   UNL     1     -50.016  27.290  22.810  1.00  0.00     0.063 C 
ATOM     27  H   UNL     1     -49.780  26.329  22.337  1.00  0.00     0.059 H 
ATOM     28  H   UNL     1     -50.795  27.130  23.563  1.00  0.00     0.059 H 
BRANCH  26  29
ATOM     29  O   UNL     1     -50.486  28.193  21.803  1.00  0.00    -0.383 OA
BRANCH  29  30
ATOM     30  C   UNL     1     -49.779  28.025  20.581  1.00  0.00     0.036 C 
ATOM     31  H   UNL     1     -49.471  26.983  20.459  1.00  0.00     0.053 H 
ATOM     32  H   UNL     1     -48.907  28.684  20.548  1.00  0.00     0.053 H 
ATOM     33  H   UNL     1     -50.449  28.289  19.758  1.00  0.00     0.053 H 
ENDBRANCH  29  30
ENDBRANCH  26  29
ENDBRANCH  23  26
ENDBRANCH  21  23
ENDBRANCH   3  21
BRANCH   7  34
ATOM     34  O   UNL     1     -46.845  34.449  26.965  1.00  0.00    -0.487 OA
BRANCH  34  35
ATOM     35  C   UNL     1     -47.233  35.735  26.465  1.00  0.00     0.115 C 
ATOM     36  H   UNL     1     -48.299  35.843  26.703  1.00  0.00     0.076 H 
ATOM     37  H   UNL     1     -47.159  35.757  25.372  1.00  0.00     0.076 H 
BRANCH  35  38
ATOM     38  C   UNL     1     -46.512  36.902  27.095  1.00  0.00     0.010 A 
ATOM     39  C   UNL     1     -45.712  36.701  28.214  1.00  0.00     0.034 A 
ATOM     40  C   UNL     1     -46.570  38.204  26.578  1.00  0.00    -0.028 A 
ATOM     41  N   UNL     1     -45.021  37.681  28.836  1.00  0.00    -0.262 NA
ATOM     42  H   UNL     1     -45.598  35.716  28.659  1.00  0.00     0.084 H 
ATOM     43  C   UNL     1     -45.905  39.255  27.213  1.00  0.00     0.066 A 
ATOM     44  H   UNL     1     -47.136  38.372  25.666  1.00  0.00     0.065 H 
ATOM     45  C   UNL     1     -45.141  38.933  28.330  1.00  0.00     0.051 A 
ATOM     46  H   UNL     1     -44.599  39.673  28.908  1.00  0.00     0.086 H 
BRANCH  43  47
ATOM     47  N   UNL     1     -46.012  40.605  26.756  1.00  0.00    -0.299 N 
ATOM     48  C   UNL     1     -44.941  41.429  26.440  1.00  0.00     0.018 A 
ATOM     49  C   UNL     1     -47.177  41.346  26.561  1.00  0.00     0.150 A 
ATOM     50  C   UNL     1     -45.395  42.674  26.041  1.00  0.00     0.012 A 
ATOM     51  H   UNL     1     -43.928  41.057  26.491  1.00  0.00     0.083 H 
ATOM     52  C   UNL     1     -46.824  42.621  26.132  1.00  0.00     0.067 A 
ATOM     53  N   UNL     1     -48.440  40.931  26.788  1.00  0.00    -0.218 NA
ATOM     54  C   UNL     1     -47.874  43.527  25.905  1.00  0.00     0.136 A 
ATOM     55  C   UNL     1     -49.353  41.880  26.547  1.00  0.00     0.120 A 
ATOM     56  N   UNL     1     -49.143  43.135  26.120  1.00  0.00    -0.219 NA
ATOM     57  H   UNL     1     -50.389  41.601  26.717  1.00  0.00     0.106 H 
BRANCH  50  58
ATOM     58  C   UNL     1     -44.596  43.867  25.581  1.00  0.00     0.085 C 
ATOM     59  C   UNL     1     -44.469  44.050  24.075  1.00  0.00    -0.020 C 
ATOM     60  O   UNL     1     -43.236  43.767  26.068  1.00  0.00    -0.373 OA
ATOM     61  H   UNL     1     -45.046  44.763  26.025  1.00  0.00     0.066 H 
ATOM     62  C   UNL     1     -43.230  43.255  23.751  1.00  0.00    -0.027 C 
ATOM     63  H   UNL     1     -44.273  45.108  23.855  1.00  0.00     0.030 H 
ATOM     64  H   UNL     1     -45.345  43.755  23.492  1.00  0.00     0.030 H 
ATOM     65  C   UNL     1     -42.360  43.532  24.956  1.00  0.00     0.048 C 
ATOM     66  H   UNL     1     -43.469  42.186  23.696  1.00  0.00     0.029 H 
ATOM     67  H   UNL     1     -42.756  43.545  22.809  1.00  0.00     0.029 H 
ATOM     68  H   UNL     1     -41.759  44.438  24.810  1.00  0.00     0.057 H 
ATOM     69  H   UNL     1     -41.686  42.703  25.187  1.00  0.00     0.057 H 
ENDBRANCH  50  58
BRANCH  54  70
ATOM     70  N   UNL     1     -47.680  44.843  25.496  1.00  0.00    -0.383 N 
ATOM     71  H   UNL     1     -48.112  45.032  24.591  1.00  0.00     0.158 HD
ATOM     72  H   UNL     1     -46.698  45.081  25.565  1.00  0.00     0.158 HD
ENDBRANCH  54  70
ENDBRANCH  43  47
ENDBRANCH  35  38
ENDBRANCH  34  35
ENDBRANCH   7  34
TORSDOF 13
ENDMDL
MODEL 6
REMARK VINA RESULT:      -8.0      2.254      3.974
REMARK SMILES CCc1cc(NCCOC)c2ncc(OCc3cncc(-n4cc([C@@H]5CCCO5)c5c(N)ncnc54)c3)cc2n1
REMARK SMILES IDX 3 1 4 2 5 3 11 4 12 5 13 6 14 7 38 8 39 9 40 10 2 14 1 17
REMARK SMILES IDX 6 21 7 23 8 26 9 29 10 30 15 34 16 35 17 38 18 39 37 40
REMARK SMILES IDX 19 41 21 43 20 45 22 47 23 48 36 49 24 50 30 52 35 53 31 54
REMARK SMILES IDX 34 55 33 56 25 58 26 59 29 60 27 62 28 65 32 70
REMARK H PARENT 4 11 13 12 38 13 2 15 2 16 1 18 1 19 1 20 6 22 7 24 7 25 8 27
REMARK H PARENT 8 28 10 31 10 32 10 33 16 36 16 37 18 42 37 44 20 46 23 51
REMARK H PARENT 34 57 25 61 26 63 26 64 27 66 27 67 28 68 28 69 32 71 32 72
REMARK Flexibility Score: inf
ROOT
ATOM      1  C   UNL     1     -46.637  30.991  22.351  1.00  0.00     0.043 A 
ATOM      2  C   UNL     1     -47.836  30.362  22.656  1.00  0.00    -0.015 A 
ATOM      3  C   UNL     1     -48.526  30.738  23.811  1.00  0.00     0.064 A 
ATOM      4  C   UNL     1     -48.024  31.766  24.623  1.00  0.00     0.112 A 
ATOM      5  N   UNL     1     -48.697  32.158  25.736  1.00  0.00    -0.249 NA
ATOM      6  C   UNL     1     -48.173  33.170  26.465  1.00  0.00     0.070 A 
ATOM      7  C   UNL     1     -46.984  33.800  26.153  1.00  0.00     0.140 A 
ATOM      8  C   UNL     1     -46.293  33.347  25.030  1.00  0.00     0.010 A 
ATOM      9  C   UNL     1     -46.799  32.338  24.228  1.00  0.00     0.095 A 
ATOM     10  N   UNL     1     -46.114  31.966  23.127  1.00  0.00    -0.251 NA
ATOM     11  H   UNL     1     -48.246  29.612  21.989  1.00  0.00     0.066 H 
ATOM     12  H   UNL     1     -48.774  33.442  27.324  1.00  0.00     0.088 H 
ATOM     13  H   UNL     1     -45.354  33.818  24.752  1.00  0.00     0.069 H 
ENDROOT
BRANCH   1  14
ATOM     14  C   UNL     1     -45.881  30.633  21.098  1.00  0.00    -0.013 C 
ATOM     15  H   UNL     1     -44.822  30.493  21.345  1.00  0.00     0.033 H 
ATOM     16  H   UNL     1     -46.241  29.673  20.708  1.00  0.00     0.033 H 
BRANCH  14  17
ATOM     17  C   UNL     1     -46.013  31.712  20.035  1.00  0.00    -0.060 C 
ATOM     18  H   UNL     1     -46.548  31.340  19.154  1.00  0.00     0.023 H 
ATOM     19  H   UNL     1     -45.023  32.050  19.713  1.00  0.00     0.023 H 
ATOM     20  H   UNL     1     -46.560  32.580  20.417  1.00  0.00     0.023 H 
ENDBRANCH  14  17
ENDBRANCH   1  14
BRANCH   3  21
ATOM     21  N   UNL     1     -49.772  30.128  24.137  1.00  0.00    -0.381 N 
ATOM     22  H   UNL     1     -49.991  30.403  25.107  1.00  0.00     0.160 HD
BRANCH  21  23
ATOM     23  C   UNL     1     -49.812  28.659  24.040  1.00  0.00     0.038 C 
ATOM     24  H   UNL     1     -50.867  28.375  23.959  1.00  0.00     0.051 H 
ATOM     25  H   UNL     1     -49.311  28.297  23.136  1.00  0.00     0.051 H 
BRANCH  23  26
ATOM     26  C   UNL     1     -49.214  27.992  25.287  1.00  0.00     0.063 C 
ATOM     27  H   UNL     1     -48.254  28.463  25.527  1.00  0.00     0.059 H 
ATOM     28  H   UNL     1     -49.886  28.101  26.145  1.00  0.00     0.059 H 
BRANCH  26  29
ATOM     29  O   UNL     1     -48.988  26.603  25.015  1.00  0.00    -0.383 OA
BRANCH  29  30
ATOM     30  C   UNL     1     -49.350  25.790  26.122  1.00  0.00     0.036 C 
ATOM     31  H   UNL     1     -48.964  24.775  25.993  1.00  0.00     0.053 H 
ATOM     32  H   UNL     1     -50.437  25.768  26.244  1.00  0.00     0.053 H 
ATOM     33  H   UNL     1     -48.905  26.219  27.024  1.00  0.00     0.053 H 
ENDBRANCH  29  30
ENDBRANCH  26  29
ENDBRANCH  23  26
ENDBRANCH  21  23
ENDBRANCH   3  21
BRANCH   7  34
ATOM     34  O   UNL     1     -46.404  34.842  26.818  1.00  0.00    -0.487 OA
BRANCH  34  35
ATOM     35  C   UNL     1     -47.102  36.093  26.852  1.00  0.00     0.115 C 
ATOM     36  H   UNL     1     -47.990  35.928  27.476  1.00  0.00     0.076 H 
ATOM     37  H   UNL     1     -47.472  36.350  25.853  1.00  0.00     0.076 H 
BRANCH  35  38
ATOM     38  C   UNL     1     -46.326  37.233  27.467  1.00  0.00     0.010 A 
ATOM     39  C   UNL     1     -45.646  37.041  28.664  1.00  0.00     0.034 A 
ATOM     40  C   UNL     1     -46.216  38.493  26.865  1.00  0.00    -0.028 A 
ATOM     41  N   UNL     1     -44.918  37.997  29.281  1.00  0.00    -0.262 NA
ATOM     42  H   UNL     1     -45.664  36.085  29.181  1.00  0.00     0.084 H 
ATOM     43  C   UNL     1     -45.507  39.523  27.488  1.00  0.00     0.066 A 
ATOM     44  H   UNL     1     -46.685  38.645  25.897  1.00  0.00     0.065 H 
ATOM     45  C   UNL     1     -44.873  39.216  28.687  1.00  0.00     0.051 A 
ATOM     46  H   UNL     1     -44.313  39.944  29.262  1.00  0.00     0.086 H 
BRANCH  43  47
ATOM     47  N   UNL     1     -45.446  40.841  26.937  1.00  0.00    -0.299 N 
ATOM     48  C   UNL     1     -46.541  41.585  26.522  1.00  0.00     0.018 A 
ATOM     49  C   UNL     1     -44.307  41.609  26.697  1.00  0.00     0.150 A 
ATOM     50  C   UNL     1     -46.129  42.811  26.030  1.00  0.00     0.012 A 
ATOM     51  H   UNL     1     -47.543  41.199  26.636  1.00  0.00     0.083 H 
ATOM     52  C   UNL     1     -44.700  42.818  26.132  1.00  0.00     0.067 A 
ATOM     53  N   UNL     1     -43.029  41.243  26.924  1.00  0.00    -0.218 NA
ATOM     54  C   UNL     1     -43.678  43.722  25.795  1.00  0.00     0.136 A 
ATOM     55  C   UNL     1     -42.145  42.179  26.555  1.00  0.00     0.120 A 
ATOM     56  N   UNL     1     -42.396  43.381  26.015  1.00  0.00    -0.219 NA
ATOM     57  H   UNL     1     -41.097  41.934  26.712  1.00  0.00     0.106 H 
BRANCH  50  58
ATOM     58  C   UNL     1     -46.969  43.946  25.501  1.00  0.00     0.085 C 
ATOM     59  C   UNL     1     -47.092  45.167  26.402  1.00  0.00    -0.020 C 
ATOM     60  O   UNL     1     -48.328  43.495  25.283  1.00  0.00    -0.373 OA
ATOM     61  H   UNL     1     -46.556  44.245  24.529  1.00  0.00     0.066 H 
ATOM     62  C   UNL     1     -48.299  44.834  27.242  1.00  0.00    -0.027 C 
ATOM     63  H   UNL     1     -47.327  46.047  25.788  1.00  0.00     0.030 H 
ATOM     64  H   UNL     1     -46.202  45.409  26.988  1.00  0.00     0.030 H 
ATOM     65  C   UNL     1     -49.187  44.127  26.243  1.00  0.00     0.048 C 
ATOM     66  H   UNL     1     -48.021  44.148  28.050  1.00  0.00     0.029 H 
ATOM     67  H   UNL     1     -48.778  45.709  27.690  1.00  0.00     0.029 H 
ATOM     68  H   UNL     1     -49.820  44.840  25.702  1.00  0.00     0.057 H 
ATOM     69  H   UNL     1     -49.831  43.377  26.710  1.00  0.00     0.057 H 
ENDBRANCH  50  58
BRANCH  54  70
ATOM     70  N   UNL     1     -43.910  44.959  25.202  1.00  0.00    -0.383 N 
ATOM     71  H   UNL     1     -43.051  45.499  25.091  1.00  0.00     0.158 HD
ATOM     72  H   UNL     1     -44.659  45.436  25.688  1.00  0.00     0.158 HD
ENDBRANCH  54  70
ENDBRANCH  43  47
ENDBRANCH  35  38
ENDBRANCH  34  35
ENDBRANCH   7  34
TORSDOF 13
ENDMDL
MODEL 7
REMARK VINA RESULT:      -7.9      2.538      4.137
REMARK SMILES CCc1cc(NCCOC)c2ncc(OCc3cncc(-n4cc([C@@H]5CCCO5)c5c(N)ncnc54)c3)cc2n1
REMARK SMILES IDX 3 1 4 2 5 3 11 4 12 5 13 6 14 7 38 8 39 9 40 10 2 14 1 17
REMARK SMILES IDX 6 21 7 23 8 26 9 29 10 30 15 34 16 35 17 38 18 39 37 40
REMARK SMILES IDX 19 41 21 43 20 45 22 47 23 48 36 49 24 50 30 52 35 53 31 54
REMARK SMILES IDX 34 55 33 56 25 58 26 59 29 60 27 62 28 65 32 70
REMARK H PARENT 4 11 13 12 38 13 2 15 2 16 1 18 1 19 1 20 6 22 7 24 7 25 8 27
REMARK H PARENT 8 28 10 31 10 32 10 33 16 36 16 37 18 42 37 44 20 46 23 51
REMARK H PARENT 34 57 25 61 26 63 26 64 27 66 27 67 28 68 28 69 32 71 32 72
REMARK Flexibility Score: inf
ROOT
ATOM      1  C   UNL     1     -46.426  30.259  22.922  1.00  0.00     0.043 A 
ATOM      2  C   UNL     1     -47.619  29.613  23.215  1.00  0.00    -0.015 A 
ATOM      3  C   UNL     1     -48.484  30.176  24.158  1.00  0.00     0.064 A 
ATOM      4  C   UNL     1     -48.157  31.398  24.765  1.00  0.00     0.112 A 
ATOM      5  N   UNL     1     -49.000  31.968  25.665  1.00  0.00    -0.249 NA
ATOM      6  C   UNL     1     -48.639  33.158  26.198  1.00  0.00     0.070 A 
ATOM      7  C   UNL     1     -47.454  33.803  25.898  1.00  0.00     0.140 A 
ATOM      8  C   UNL     1     -46.590  33.172  25.004  1.00  0.00     0.010 A 
ATOM      9  C   UNL     1     -46.923  31.971  24.402  1.00  0.00     0.095 A 
ATOM     10  N   UNL     1     -46.071  31.423  23.510  1.00  0.00    -0.251 NA
ATOM     11  H   UNL     1     -47.890  28.701  22.695  1.00  0.00     0.066 H 
ATOM     12  H   UNL     1     -49.368  33.561  26.891  1.00  0.00     0.088 H 
ATOM     13  H   UNL     1     -45.648  33.648  24.742  1.00  0.00     0.069 H 
ENDROOT
BRANCH   1  14
ATOM     14  C   UNL     1     -45.484  29.698  21.889  1.00  0.00    -0.013 C 
ATOM     15  H   UNL     1     -46.067  29.194  21.108  1.00  0.00     0.033 H 
ATOM     16  H   UNL     1     -44.944  30.515  21.397  1.00  0.00     0.033 H 
BRANCH  14  17
ATOM     17  C   UNL     1     -44.501  28.712  22.501  1.00  0.00    -0.060 C 
ATOM     18  H   UNL     1     -43.693  29.231  23.027  1.00  0.00     0.023 H 
ATOM     19  H   UNL     1     -44.053  28.091  21.720  1.00  0.00     0.023 H 
ATOM     20  H   UNL     1     -44.999  28.050  23.217  1.00  0.00     0.023 H 
ENDBRANCH  14  17
ENDBRANCH   1  14
BRANCH   3  21
ATOM     21  N   UNL     1     -49.727  29.549  24.460  1.00  0.00    -0.381 N 
ATOM     22  H   UNL     1     -50.124  30.053  25.268  1.00  0.00     0.160 HD
BRANCH  21  23
ATOM     23  C   UNL     1     -49.659  28.114  24.785  1.00  0.00     0.038 C 
ATOM     24  H   UNL     1     -50.691  27.773  24.928  1.00  0.00     0.051 H 
ATOM     25  H   UNL     1     -49.239  27.530  23.960  1.00  0.00     0.051 H 
BRANCH  23  26
ATOM     26  C   UNL     1     -48.870  27.861  26.077  1.00  0.00     0.063 C 
ATOM     27  H   UNL     1     -47.813  27.706  25.834  1.00  0.00     0.059 H 
ATOM     28  H   UNL     1     -48.955  28.716  26.757  1.00  0.00     0.059 H 
BRANCH  26  29
ATOM     29  O   UNL     1     -49.372  26.679  26.712  1.00  0.00    -0.383 OA
BRANCH  29  30
ATOM     30  C   UNL     1     -50.411  26.079  25.951  1.00  0.00     0.036 C 
ATOM     31  H   UNL     1     -51.001  25.402  26.576  1.00  0.00     0.053 H 
ATOM     32  H   UNL     1     -49.998  25.539  25.094  1.00  0.00     0.053 H 
ATOM     33  H   UNL     1     -51.068  26.872  25.581  1.00  0.00     0.053 H 
ENDBRANCH  29  30
ENDBRANCH  26  29
ENDBRANCH  23  26
ENDBRANCH  21  23
ENDBRANCH   3  21
BRANCH   7  34
ATOM     34  O   UNL     1     -47.032  35.012  26.369  1.00  0.00    -0.487 OA
BRANCH  34  35
ATOM     35  C   UNL     1     -47.499  35.435  27.657  1.00  0.00     0.115 C 
ATOM     36  H   UNL     1     -46.627  35.400  28.321  1.00  0.00     0.076 H 
ATOM     37  H   UNL     1     -48.220  34.713  28.057  1.00  0.00     0.076 H 
BRANCH  35  38
ATOM     38  C   UNL     1     -48.040  36.844  27.700  1.00  0.00     0.010 A 
ATOM     39  C   UNL     1     -49.351  37.070  28.103  1.00  0.00     0.034 A 
ATOM     40  C   UNL     1     -47.264  37.969  27.390  1.00  0.00    -0.028 A 
ATOM     41  N   UNL     1     -49.916  38.294  28.184  1.00  0.00    -0.262 NA
ATOM     42  H   UNL     1     -50.008  36.251  28.382  1.00  0.00     0.084 H 
ATOM     43  C   UNL     1     -47.820  39.250  27.420  1.00  0.00     0.066 A 
ATOM     44  H   UNL     1     -46.219  37.821  27.137  1.00  0.00     0.065 H 
ATOM     45  C   UNL     1     -49.144  39.352  27.832  1.00  0.00     0.051 A 
ATOM     46  H   UNL     1     -49.679  40.295  27.874  1.00  0.00     0.086 H 
BRANCH  43  47
ATOM     47  N   UNL     1     -47.077  40.407  27.031  1.00  0.00    -0.299 N 
ATOM     48  C   UNL     1     -45.695  40.521  27.076  1.00  0.00     0.018 A 
ATOM     49  C   UNL     1     -47.578  41.620  26.561  1.00  0.00     0.150 A 
ATOM     50  C   UNL     1     -45.301  41.774  26.639  1.00  0.00     0.012 A 
ATOM     51  H   UNL     1     -45.084  39.686  27.387  1.00  0.00     0.083 H 
ATOM     52  C   UNL     1     -46.509  42.478  26.323  1.00  0.00     0.067 A 
ATOM     53  N   UNL     1     -48.876  41.945  26.400  1.00  0.00    -0.218 NA
ATOM     54  C   UNL     1     -46.821  43.770  25.864  1.00  0.00     0.136 A 
ATOM     55  C   UNL     1     -49.052  43.200  25.969  1.00  0.00     0.120 A 
ATOM     56  N   UNL     1     -48.110  44.115  25.692  1.00  0.00    -0.219 NA
ATOM     57  H   UNL     1     -50.082  43.517  25.826  1.00  0.00     0.106 H 
BRANCH  50  58
ATOM     58  C   UNL     1     -43.907  42.328  26.492  1.00  0.00     0.085 C 
ATOM     59  C   UNL     1     -42.766  41.345  26.723  1.00  0.00    -0.020 C 
ATOM     60  O   UNL     1     -43.694  43.391  27.451  1.00  0.00    -0.373 OA
ATOM     61  H   UNL     1     -43.822  42.761  25.487  1.00  0.00     0.066 H 
ATOM     62  C   UNL     1     -42.522  41.470  28.205  1.00  0.00    -0.027 C 
ATOM     63  H   UNL     1     -41.873  41.698  26.191  1.00  0.00     0.030 H 
ATOM     64  H   UNL     1     -42.956  40.321  26.393  1.00  0.00     0.030 H 
ATOM     65  C   UNL     1     -42.746  42.948  28.434  1.00  0.00     0.048 C 
ATOM     66  H   UNL     1     -43.264  40.886  28.762  1.00  0.00     0.029 H 
ATOM     67  H   UNL     1     -41.527  41.139  28.516  1.00  0.00     0.029 H 
ATOM     68  H   UNL     1     -41.822  43.517  28.282  1.00  0.00     0.057 H 
ATOM     69  H   UNL     1     -43.127  43.166  29.436  1.00  0.00     0.057 H 
ENDBRANCH  50  58
BRANCH  54  70
ATOM     70  N   UNL     1     -45.866  44.746  25.604  1.00  0.00    -0.383 N 
ATOM     71  H   UNL     1     -45.849  45.469  26.323  1.00  0.00     0.158 HD
ATOM     72  H   UNL     1     -45.972  45.084  24.655  1.00  0.00     0.158 HD
ENDBRANCH  54  70
ENDBRANCH  43  47
ENDBRANCH  35  38
ENDBRANCH  34  35
ENDBRANCH   7  34
TORSDOF 13
ENDMDL
