MODEL 1
REMARK VINA RESULT:     -10.0      0.000      0.000
REMARK SMILES CNc1ccc2ccc(OC[C@H]3O[C@@H](n4cc([C@H]5CCN(C)C5)c5c(N)ncnc54)[C@@H](F)[C@@H]3O)cc2n1
REMARK SMILES IDX 11 1 10 4 9 5 3 6 4 7 37 8 5 9 36 11 6 12 35 14 7 15 8 17
REMARK SMILES IDX 2 20 1 22 12 26 13 27 33 28 14 30 31 31 32 34 34 36 15 38
REMARK SMILES IDX 16 39 30 40 17 41 24 43 29 44 25 45 28 46 27 47 18 49 19 50
REMARK SMILES IDX 23 51 20 53 21 56 22 61 26 65
REMARK H PARENT 11 2 11 3 4 10 5 13 35 16 7 18 8 19 2 21 1 23 1 24 1 25 12 29
REMARK H PARENT 33 32 14 33 31 35 34 37 16 42 28 48 18 52 19 54 19 55 23 57
REMARK H PARENT 23 58 20 59 20 60 22 62 22 63 22 64 26 66 26 67
REMARK Flexibility Score: inf
ROOT
ATOM      1  C   UNL     1     -46.129  35.654  26.718  1.00  0.00     0.117 C 
ATOM      2  H   UNL     1     -45.979  36.492  26.028  1.00  0.00     0.073 H 
ATOM      3  H   UNL     1     -45.351  34.924  26.476  1.00  0.00     0.073 H 
ENDROOT
BRANCH   1   4
ATOM      4  O   UNL     1     -47.440  35.153  26.428  1.00  0.00    -0.491 OA
BRANCH   4   5
ATOM      5  C   UNL     1     -47.574  33.916  25.863  1.00  0.00     0.121 A 
ATOM      6  C   UNL     1     -46.200  30.202  23.230  1.00  0.00     0.126 A 
ATOM      7  C   UNL     1     -47.338  29.476  23.548  1.00  0.00    -0.019 A 
ATOM      8  N   UNL     1     -45.991  31.452  23.680  1.00  0.00    -0.231 NA
ATOM      9  C   UNL     1     -48.286  30.050  24.389  1.00  0.00    -0.049 A 
ATOM     10  H   UNL     1     -47.497  28.484  23.141  1.00  0.00     0.066 H 
ATOM     11  C   UNL     1     -46.901  32.011  24.498  1.00  0.00     0.076 A 
ATOM     12  C   UNL     1     -48.075  31.338  24.889  1.00  0.00     0.001 A 
ATOM     13  H   UNL     1     -49.180  29.489  24.647  1.00  0.00     0.063 H 
ATOM     14  C   UNL     1     -46.680  33.294  24.989  1.00  0.00     0.007 A 
ATOM     15  C   UNL     1     -48.990  31.957  25.754  1.00  0.00    -0.049 A 
ATOM     16  H   UNL     1     -45.763  33.778  24.674  1.00  0.00     0.069 H 
ATOM     17  C   UNL     1     -48.733  33.237  26.239  1.00  0.00    -0.019 A 
ATOM     18  H   UNL     1     -49.899  31.445  26.060  1.00  0.00     0.063 H 
ATOM     19  H   UNL     1     -49.439  33.709  26.918  1.00  0.00     0.066 H 
BRANCH   6  20
ATOM     20  N   UNL     1     -45.198  29.693  22.399  1.00  0.00    -0.373 N 
ATOM     21  H   UNL     1     -44.421  30.332  22.569  1.00  0.00     0.161 HD
BRANCH  20  22
ATOM     22  C   UNL     1     -44.828  28.323  22.716  1.00  0.00     0.005 C 
ATOM     23  H   UNL     1     -44.210  28.322  23.619  1.00  0.00     0.045 H 
ATOM     24  H   UNL     1     -44.235  27.868  21.916  1.00  0.00     0.045 H 
ATOM     25  H   UNL     1     -45.709  27.701  22.913  1.00  0.00     0.045 H 
ENDBRANCH  20  22
ENDBRANCH   6  20
ENDBRANCH   4   5
ENDBRANCH   1   4
BRANCH   1  26
ATOM     26  C   UNL     1     -46.034  36.184  28.155  1.00  0.00     0.123 C 
ATOM     27  O   UNL     1     -44.840  36.965  28.335  1.00  0.00    -0.345 OA
ATOM     28  C   UNL     1     -47.221  37.076  28.517  1.00  0.00     0.119 C 
ATOM     29  H   UNL     1     -45.962  35.334  28.844  1.00  0.00     0.067 H 
ATOM     30  C   UNL     1     -45.159  38.127  29.119  1.00  0.00     0.169 C 
ATOM     31  C   UNL     1     -46.623  38.038  29.522  1.00  0.00     0.173 C 
ATOM     32  H   UNL     1     -47.639  37.615  27.663  1.00  0.00     0.066 H 
ATOM     33  H   UNL     1     -44.539  38.078  30.022  1.00  0.00     0.088 H 
ATOM     34  F   UNL     1     -47.257  39.235  29.490  1.00  0.00    -0.239 F 
ATOM     35  H   UNL     1     -46.721  37.641  30.539  1.00  0.00     0.074 H 
BRANCH  28  36
ATOM     36  O   UNL     1     -48.280  36.312  29.102  1.00  0.00    -0.387 OA
ATOM     37  H   UNL     1     -48.251  35.419  28.715  1.00  0.00     0.211 HD
ENDBRANCH  28  36
BRANCH  30  38
ATOM     38  N   UNL     1     -44.737  39.310  28.385  1.00  0.00    -0.303 N 
ATOM     39  C   UNL     1     -45.388  39.788  27.270  1.00  0.00     0.013 A 
ATOM     40  C   UNL     1     -43.704  40.155  28.701  1.00  0.00     0.147 A 
ATOM     41  C   UNL     1     -44.762  40.947  26.842  1.00  0.00    -0.012 A 
ATOM     42  H   UNL     1     -46.251  39.270  26.871  1.00  0.00     0.082 H 
ATOM     43  C   UNL     1     -43.697  41.197  27.777  1.00  0.00     0.065 A 
ATOM     44  N   UNL     1     -42.857  40.005  29.734  1.00  0.00    -0.218 NA
ATOM     45  C   UNL     1     -42.713  42.185  27.965  1.00  0.00     0.136 A 
ATOM     46  C   UNL     1     -41.954  40.995  29.789  1.00  0.00     0.120 A 
ATOM     47  N   UNL     1     -41.837  42.059  28.979  1.00  0.00    -0.219 NA
ATOM     48  H   UNL     1     -41.226  40.934  30.592  1.00  0.00     0.106 H 
BRANCH  41  49
ATOM     49  C   UNL     1     -45.138  41.791  25.660  1.00  0.00     0.000 C 
ATOM     50  C   UNL     1     -45.752  43.154  25.978  1.00  0.00    -0.032 C 
ATOM     51  C   UNL     1     -43.956  42.125  24.733  1.00  0.00     0.005 C 
ATOM     52  H   UNL     1     -45.890  41.251  25.070  1.00  0.00     0.037 H 
ATOM     53  C   UNL     1     -45.444  43.952  24.724  1.00  0.00    -0.002 C 
ATOM     54  H   UNL     1     -45.286  43.633  26.847  1.00  0.00     0.029 H 
ATOM     55  H   UNL     1     -46.828  43.085  26.170  1.00  0.00     0.029 H 
ATOM     56  N   UNL     1     -44.061  43.564  24.445  1.00  0.00    -0.306 NA
ATOM     57  H   UNL     1     -44.031  41.514  23.824  1.00  0.00     0.044 H 
ATOM     58  H   UNL     1     -42.985  41.915  25.194  1.00  0.00     0.044 H 
ATOM     59  H   UNL     1     -46.123  43.660  23.912  1.00  0.00     0.043 H 
ATOM     60  H   UNL     1     -45.540  45.028  24.897  1.00  0.00     0.043 H 
BRANCH  56  61
ATOM     61  C   UNL     1     -43.638  43.912  23.099  1.00  0.00    -0.013 C 
ATOM     62  H   UNL     1     -43.907  43.116  22.396  1.00  0.00     0.039 H 
ATOM     63  H   UNL     1     -42.549  44.021  23.057  1.00  0.00     0.039 H 
ATOM     64  H   UNL     1     -44.089  44.847  22.749  1.00  0.00     0.039 H 
ENDBRANCH  56  61
ENDBRANCH  41  49
BRANCH  45  65
ATOM     65  N   UNL     1     -42.583  43.333  27.189  1.00  0.00    -0.383 N 
ATOM     66  H   UNL     1     -42.396  43.136  26.216  1.00  0.00     0.158 HD
ATOM     67  H   UNL     1     -43.394  43.924  27.350  1.00  0.00     0.158 HD
ENDBRANCH  45  65
ENDBRANCH  30  38
ENDBRANCH   1  26
TORSDOF 10
ENDMDL
MODEL 2
REMARK VINA RESULT:      -9.3      1.991      2.767
REMARK SMILES CNc1ccc2ccc(OC[C@H]3O[C@@H](n4cc([C@H]5CCN(C)C5)c5c(N)ncnc54)[C@@H](F)[C@@H]3O)cc2n1
REMARK SMILES IDX 11 1 10 4 9 5 3 6 4 7 37 8 5 9 36 11 6 12 35 14 7 15 8 17
REMARK SMILES IDX 2 20 1 22 12 26 13 27 33 28 14 30 31 31 32 34 34 36 15 38
REMARK SMILES IDX 16 39 30 40 17 41 24 43 29 44 25 45 28 46 27 47 18 49 19 50
REMARK SMILES IDX 23 51 20 53 21 56 22 61 26 65
REMARK H PARENT 11 2 11 3 4 10 5 13 35 16 7 18 8 19 2 21 1 23 1 24 1 25 12 29
REMARK H PARENT 33 32 14 33 31 35 34 37 16 42 28 48 18 52 19 54 19 55 23 57
REMARK H PARENT 23 58 20 59 20 60 22 62 22 63 22 64 26 66 26 67
REMARK Flexibility Score: inf
ROOT
ATOM      1  C   UNL     1     -46.208  34.130  26.089  1.00  0.00     0.117 C 
ATOM      2  H   UNL     1     -45.664  34.963  25.627  1.00  0.00     0.073 H 
ATOM      3  H   UNL     1     -45.457  33.363  26.302  1.00  0.00     0.073 H 
ENDROOT
BRANCH   1   4
ATOM      4  O   UNL     1     -47.148  33.695  25.099  1.00  0.00    -0.491 OA
BRANCH   4   5
ATOM      5  C   UNL     1     -47.243  32.364  24.804  1.00  0.00     0.121 A 
ATOM      6  C   UNL     1     -49.021  27.972  25.204  1.00  0.00     0.126 A 
ATOM      7  C   UNL     1     -48.204  27.482  24.197  1.00  0.00    -0.019 A 
ATOM      8  N   UNL     1     -48.972  29.251  25.618  1.00  0.00    -0.231 NA
ATOM      9  C   UNL     1     -47.319  28.353  23.569  1.00  0.00    -0.049 A 
ATOM     10  H   UNL     1     -48.240  26.438  23.910  1.00  0.00     0.066 H 
ATOM     11  C   UNL     1     -48.122  30.100  25.010  1.00  0.00     0.076 A 
ATOM     12  C   UNL     1     -47.270  29.692  23.965  1.00  0.00     0.001 A 
ATOM     13  H   UNL     1     -46.676  27.980  22.776  1.00  0.00     0.063 H 
ATOM     14  C   UNL     1     -48.082  31.430  25.414  1.00  0.00     0.007 A 
ATOM     15  C   UNL     1     -46.410  30.616  23.354  1.00  0.00    -0.049 A 
ATOM     16  H   UNL     1     -48.758  31.710  26.215  1.00  0.00     0.069 H 
ATOM     17  C   UNL     1     -46.403  31.944  23.772  1.00  0.00    -0.019 A 
ATOM     18  H   UNL     1     -45.748  30.309  22.547  1.00  0.00     0.063 H 
ATOM     19  H   UNL     1     -45.743  32.660  23.288  1.00  0.00     0.066 H 
BRANCH   6  20
ATOM     20  N   UNL     1     -49.942  27.164  25.877  1.00  0.00    -0.373 N 
ATOM     21  H   UNL     1     -50.147  27.709  26.715  1.00  0.00     0.161 HD
BRANCH  20  22
ATOM     22  C   UNL     1     -51.151  26.906  25.112  1.00  0.00     0.005 C 
ATOM     23  H   UNL     1     -51.442  27.822  24.589  1.00  0.00     0.045 H 
ATOM     24  H   UNL     1     -51.987  26.619  25.758  1.00  0.00     0.045 H 
ATOM     25  H   UNL     1     -50.993  26.127  24.357  1.00  0.00     0.045 H 
ENDBRANCH  20  22
ENDBRANCH   6  20
ENDBRANCH   4   5
ENDBRANCH   1   4
BRANCH   1  26
ATOM     26  C   UNL     1     -46.916  34.650  27.348  1.00  0.00     0.123 C 
ATOM     27  O   UNL     1     -46.035  35.480  28.124  1.00  0.00    -0.345 OA
ATOM     28  C   UNL     1     -48.150  35.484  27.009  1.00  0.00     0.119 C 
ATOM     29  H   UNL     1     -47.185  33.796  27.982  1.00  0.00     0.067 H 
ATOM     30  C   UNL     1     -46.772  36.619  28.600  1.00  0.00     0.169 C 
ATOM     31  C   UNL     1     -48.221  36.461  28.163  1.00  0.00     0.173 C 
ATOM     32  H   UNL     1     -48.071  36.012  26.056  1.00  0.00     0.066 H 
ATOM     33  H   UNL     1     -46.727  36.588  29.695  1.00  0.00     0.088 H 
ATOM     34  F   UNL     1     -48.792  37.629  27.781  1.00  0.00    -0.239 F 
ATOM     35  H   UNL     1     -48.827  36.050  28.978  1.00  0.00     0.074 H 
BRANCH  28  36
ATOM     36  O   UNL     1     -49.323  34.668  26.952  1.00  0.00    -0.387 OA
ATOM     37  H   UNL     1     -50.035  35.197  26.550  1.00  0.00     0.211 HD
ENDBRANCH  28  36
BRANCH  30  38
ATOM     38  N   UNL     1     -46.076  37.827  28.185  1.00  0.00    -0.303 N 
ATOM     39  C   UNL     1     -46.432  38.574  27.085  1.00  0.00     0.013 A 
ATOM     40  C   UNL     1     -45.031  38.442  28.828  1.00  0.00     0.147 A 
ATOM     41  C   UNL     1     -45.601  39.678  26.998  1.00  0.00    -0.012 A 
ATOM     42  H   UNL     1     -47.257  38.266  26.454  1.00  0.00     0.082 H 
ATOM     43  C   UNL     1     -44.717  39.606  28.131  1.00  0.00     0.065 A 
ATOM     44  N   UNL     1     -44.427  37.998  29.944  1.00  0.00    -0.218 NA
ATOM     45  C   UNL     1     -43.678  40.388  28.668  1.00  0.00     0.136 A 
ATOM     46  C   UNL     1     -43.440  38.816  30.339  1.00  0.00     0.120 A 
ATOM     47  N   UNL     1     -43.041  39.967  29.776  1.00  0.00    -0.219 NA
ATOM     48  H   UNL     1     -42.898  38.514  31.229  1.00  0.00     0.106 H 
BRANCH  41  49
ATOM     49  C   UNL     1     -45.633  40.750  25.948  1.00  0.00     0.000 C 
ATOM     50  C   UNL     1     -46.235  42.087  26.377  1.00  0.00    -0.032 C 
ATOM     51  C   UNL     1     -44.246  41.126  25.400  1.00  0.00     0.005 C 
ATOM     52  H   UNL     1     -46.246  40.398  25.108  1.00  0.00     0.037 H 
ATOM     53  C   UNL     1     -45.590  43.061  25.407  1.00  0.00    -0.002 C 
ATOM     54  H   UNL     1     -45.970  42.358  27.406  1.00  0.00     0.029 H 
ATOM     55  H   UNL     1     -47.327  42.090  26.300  1.00  0.00     0.029 H 
ATOM     56  N   UNL     1     -44.202  42.597  25.383  1.00  0.00    -0.306 NA
ATOM     57  H   UNL     1     -44.128  40.696  24.397  1.00  0.00     0.044 H 
ATOM     58  H   UNL     1     -43.428  40.745  26.022  1.00  0.00     0.044 H 
ATOM     59  H   UNL     1     -46.064  42.985  24.421  1.00  0.00     0.043 H 
ATOM     60  H   UNL     1     -45.669  44.094  25.759  1.00  0.00     0.043 H 
BRANCH  56  61
ATOM     61  C   UNL     1     -43.446  43.135  24.263  1.00  0.00    -0.013 C 
ATOM     62  H   UNL     1     -44.113  43.653  23.567  1.00  0.00     0.039 H 
ATOM     63  H   UNL     1     -42.965  42.326  23.704  1.00  0.00     0.039 H 
ATOM     64  H   UNL     1     -42.670  43.838  24.585  1.00  0.00     0.039 H 
ENDBRANCH  56  61
ENDBRANCH  41  49
BRANCH  45  65
ATOM     65  N   UNL     1     -43.262  41.614  28.156  1.00  0.00    -0.383 N 
ATOM     66  H   UNL     1     -42.283  41.630  27.911  1.00  0.00     0.158 HD
ATOM     67  H   UNL     1     -43.889  41.877  27.401  1.00  0.00     0.158 HD
ENDBRANCH  45  65
ENDBRANCH  30  38
ENDBRANCH   1  26
TORSDOF 10
ENDMDL
MODEL 3
REMARK VINA RESULT:      -9.2      1.656      2.606
REMARK SMILES CNc1ccc2ccc(OC[C@H]3O[C@@H](n4cc([C@H]5CCN(C)C5)c5c(N)ncnc54)[C@@H](F)[C@@H]3O)cc2n1
REMARK SMILES IDX 11 1 10 4 9 5 3 6 4 7 37 8 5 9 36 11 6 12 35 14 7 15 8 17
REMARK SMILES IDX 2 20 1 22 12 26 13 27 33 28 14 30 31 31 32 34 34 36 15 38
REMARK SMILES IDX 16 39 30 40 17 41 24 43 29 44 25 45 28 46 27 47 18 49 19 50
REMARK SMILES IDX 23 51 20 53 21 56 22 61 26 65
REMARK H PARENT 11 2 11 3 4 10 5 13 35 16 7 18 8 19 2 21 1 23 1 24 1 25 12 29
REMARK H PARENT 33 32 14 33 31 35 34 37 16 42 28 48 18 52 19 54 19 55 23 57
REMARK H PARENT 23 58 20 59 20 60 22 62 22 63 22 64 26 66 26 67
REMARK Flexibility Score: inf
ROOT
ATOM      1  C   UNL     1     -47.186  35.285  27.684  1.00  0.00     0.117 C 
ATOM      2  H   UNL     1     -47.493  34.310  28.080  1.00  0.00     0.073 H 
ATOM      3  H   UNL     1     -48.038  35.954  27.840  1.00  0.00     0.073 H 
ENDROOT
BRANCH   1   4
ATOM      4  O   UNL     1     -46.929  35.065  26.291  1.00  0.00    -0.491 OA
BRANCH   4   5
ATOM      5  C   UNL     1     -47.209  33.845  25.743  1.00  0.00     0.121 A 
ATOM      6  C   UNL     1     -46.414  30.093  22.932  1.00  0.00     0.126 A 
ATOM      7  C   UNL     1     -47.539  29.428  23.395  1.00  0.00    -0.019 A 
ATOM      8  N   UNL     1     -46.074  31.323  23.356  1.00  0.00    -0.231 NA
ATOM      9  C   UNL     1     -48.333  30.044  24.358  1.00  0.00    -0.049 A 
ATOM     10  H   UNL     1     -47.808  28.453  23.008  1.00  0.00     0.066 H 
ATOM     11  C   UNL     1     -46.835  31.922  24.292  1.00  0.00     0.076 A 
ATOM     12  C   UNL     1     -47.983  31.312  24.832  1.00  0.00     0.001 A 
ATOM     13  H   UNL     1     -49.215  29.532  24.730  1.00  0.00     0.063 H 
ATOM     14  C   UNL     1     -46.477  33.184  24.755  1.00  0.00     0.007 A 
ATOM     15  C   UNL     1     -48.738  31.971  25.813  1.00  0.00    -0.049 A 
ATOM     16  H   UNL     1     -45.582  33.619  24.323  1.00  0.00     0.069 H 
ATOM     17  C   UNL     1     -48.346  33.228  26.266  1.00  0.00    -0.019 A 
ATOM     18  H   UNL     1     -49.627  31.507  26.235  1.00  0.00     0.063 H 
ATOM     19  H   UNL     1     -48.926  33.730  27.036  1.00  0.00     0.066 H 
BRANCH   6  20
ATOM     20  N   UNL     1     -45.562  29.538  21.973  1.00  0.00    -0.373 N 
ATOM     21  H   UNL     1     -45.125  30.362  21.558  1.00  0.00     0.161 HD
BRANCH  20  22
ATOM     22  C   UNL     1     -44.564  28.643  22.537  1.00  0.00     0.005 C 
ATOM     23  H   UNL     1     -44.133  29.109  23.428  1.00  0.00     0.045 H 
ATOM     24  H   UNL     1     -43.743  28.459  21.836  1.00  0.00     0.045 H 
ATOM     25  H   UNL     1     -45.003  27.686  22.840  1.00  0.00     0.045 H 
ENDBRANCH  20  22
ENDBRANCH   6  20
ENDBRANCH   4   5
ENDBRANCH   1   4
BRANCH   1  26
ATOM     26  C   UNL     1     -45.920  35.735  28.425  1.00  0.00     0.123 C 
ATOM     27  O   UNL     1     -45.187  36.698  27.648  1.00  0.00    -0.345 OA
ATOM     28  C   UNL     1     -46.243  36.384  29.770  1.00  0.00     0.119 C 
ATOM     29  H   UNL     1     -45.260  34.869  28.559  1.00  0.00     0.067 H 
ATOM     30  C   UNL     1     -44.716  37.737  28.524  1.00  0.00     0.169 C 
ATOM     31  C   UNL     1     -45.110  37.372  29.947  1.00  0.00     0.173 C 
ATOM     32  H   UNL     1     -47.210  36.893  29.788  1.00  0.00     0.066 H 
ATOM     33  H   UNL     1     -43.622  37.742  28.448  1.00  0.00     0.088 H 
ATOM     34  F   UNL     1     -45.502  38.440  30.682  1.00  0.00    -0.239 F 
ATOM     35  H   UNL     1     -44.269  36.903  30.471  1.00  0.00     0.074 H 
BRANCH  28  36
ATOM     36  O   UNL     1     -46.249  35.414  30.821  1.00  0.00    -0.387 OA
ATOM     37  H   UNL     1     -46.406  35.884  31.660  1.00  0.00     0.211 HD
ENDBRANCH  28  36
BRANCH  30  38
ATOM     38  N   UNL     1     -45.177  39.018  28.010  1.00  0.00    -0.303 N 
ATOM     39  C   UNL     1     -44.336  39.995  27.527  1.00  0.00     0.013 A 
ATOM     40  C   UNL     1     -46.477  39.431  27.863  1.00  0.00     0.147 A 
ATOM     41  C   UNL     1     -45.092  41.064  27.077  1.00  0.00    -0.012 A 
ATOM     42  H   UNL     1     -43.262  39.850  27.535  1.00  0.00     0.082 H 
ATOM     43  C   UNL     1     -46.468  40.691  27.269  1.00  0.00     0.065 A 
ATOM     44  N   UNL     1     -47.567  38.730  28.220  1.00  0.00    -0.218 NA
ATOM     45  C   UNL     1     -47.728  41.263  27.011  1.00  0.00     0.136 A 
ATOM     46  C   UNL     1     -48.701  39.393  27.947  1.00  0.00     0.120 A 
ATOM     47  N   UNL     1     -48.841  40.596  27.370  1.00  0.00    -0.219 NA
ATOM     48  H   UNL     1     -49.624  38.892  28.220  1.00  0.00     0.106 H 
BRANCH  41  49
ATOM     49  C   UNL     1     -44.581  42.342  26.480  1.00  0.00     0.000 C 
ATOM     50  C   UNL     1     -43.207  42.804  26.965  1.00  0.00    -0.032 C 
ATOM     51  C   UNL     1     -44.438  42.299  24.948  1.00  0.00     0.005 C 
ATOM     52  H   UNL     1     -45.278  43.150  26.733  1.00  0.00     0.037 H 
ATOM     53  C   UNL     1     -42.730  43.672  25.814  1.00  0.00    -0.002 C 
ATOM     54  H   UNL     1     -42.511  41.970  27.115  1.00  0.00     0.029 H 
ATOM     55  H   UNL     1     -43.270  43.362  27.905  1.00  0.00     0.029 H 
ATOM     56  N   UNL     1     -43.119  42.878  24.648  1.00  0.00    -0.306 NA
ATOM     57  H   UNL     1     -45.255  42.876  24.497  1.00  0.00     0.044 H 
ATOM     58  H   UNL     1     -44.489  41.281  24.547  1.00  0.00     0.044 H 
ATOM     59  H   UNL     1     -43.239  44.644  25.836  1.00  0.00     0.043 H 
ATOM     60  H   UNL     1     -41.649  43.838  25.855  1.00  0.00     0.043 H 
BRANCH  56  61
ATOM     61  C   UNL     1     -43.096  43.642  23.412  1.00  0.00    -0.013 C 
ATOM     62  H   UNL     1     -42.423  44.501  23.506  1.00  0.00     0.039 H 
ATOM     63  H   UNL     1     -44.092  44.039  23.190  1.00  0.00     0.039 H 
ATOM     64  H   UNL     1     -42.768  43.041  22.557  1.00  0.00     0.039 H 
ENDBRANCH  56  61
ENDBRANCH  41  49
BRANCH  45  65
ATOM     65  N   UNL     1     -47.929  42.480  26.368  1.00  0.00    -0.383 N 
ATOM     66  H   UNL     1     -48.841  42.877  26.544  1.00  0.00     0.158 HD
ATOM     67  H   UNL     1     -47.153  43.096  26.593  1.00  0.00     0.158 HD
ENDBRANCH  45  65
ENDBRANCH  30  38
ENDBRANCH   1  26
TORSDOF 10
ENDMDL
MODEL 4
REMARK VINA RESULT:      -9.0      2.504      4.663
REMARK SMILES CNc1ccc2ccc(OC[C@H]3O[C@@H](n4cc([C@H]5CCN(C)C5)c5c(N)ncnc54)[C@@H](F)[C@@H]3O)cc2n1
REMARK SMILES IDX 11 1 10 4 9 5 3 6 4 7 37 8 5 9 36 11 6 12 35 14 7 15 8 17
REMARK SMILES IDX 2 20 1 22 12 26 13 27 33 28 14 30 31 31 32 34 34 36 15 38
REMARK SMILES IDX 16 39 30 40 17 41 24 43 29 44 25 45 28 46 27 47 18 49 19 50
REMARK SMILES IDX 23 51 20 53 21 56 22 61 26 65
REMARK H PARENT 11 2 11 3 4 10 5 13 35 16 7 18 8 19 2 21 1 23 1 24 1 25 12 29
REMARK H PARENT 33 32 14 33 31 35 34 37 16 42 28 48 18 52 19 54 19 55 23 57
REMARK H PARENT 23 58 20 59 20 60 22 62 22 63 22 64 26 66 26 67
REMARK Flexibility Score: inf
ROOT
ATOM      1  C   UNL     1     -45.605  38.856  28.799  1.00  0.00     0.117 C 
ATOM      2  H   UNL     1     -45.499  37.843  29.203  1.00  0.00     0.073 H 
ATOM      3  H   UNL     1     -45.918  39.483  29.639  1.00  0.00     0.073 H 
ENDROOT
BRANCH   1   4
ATOM      4  O   UNL     1     -46.625  38.761  27.796  1.00  0.00    -0.491 OA
BRANCH   4   5
ATOM      5  C   UNL     1     -47.075  37.529  27.414  1.00  0.00     0.121 A 
ATOM      6  C   UNL     1     -46.648  33.142  25.629  1.00  0.00     0.126 A 
ATOM      7  C   UNL     1     -47.982  32.847  25.871  1.00  0.00    -0.019 A 
ATOM      8  N   UNL     1     -46.111  34.342  25.910  1.00  0.00    -0.231 NA
ATOM      9  C   UNL     1     -48.788  33.818  26.454  1.00  0.00    -0.049 A 
ATOM     10  H   UNL     1     -48.396  31.882  25.600  1.00  0.00     0.066 H 
ATOM     11  C   UNL     1     -46.885  35.285  26.479  1.00  0.00     0.076 A 
ATOM     12  C   UNL     1     -48.243  35.064  26.778  1.00  0.00     0.001 A 
ATOM     13  H   UNL     1     -49.833  33.597  26.651  1.00  0.00     0.063 H 
ATOM     14  C   UNL     1     -46.331  36.521  26.796  1.00  0.00     0.007 A 
ATOM     15  C   UNL     1     -49.007  36.073  27.383  1.00  0.00    -0.049 A 
ATOM     16  H   UNL     1     -45.281  36.653  26.560  1.00  0.00     0.069 H 
ATOM     17  C   UNL     1     -48.420  37.295  27.701  1.00  0.00    -0.019 A 
ATOM     18  H   UNL     1     -50.057  35.911  27.617  1.00  0.00     0.063 H 
ATOM     19  H   UNL     1     -49.012  38.071  28.180  1.00  0.00     0.066 H 
BRANCH   6  20
ATOM     20  N   UNL     1     -45.772  32.217  25.055  1.00  0.00    -0.373 N 
ATOM     21  H   UNL     1     -45.540  31.610  25.841  1.00  0.00     0.161 HD
BRANCH  20  22
ATOM     22  C   UNL     1     -46.365  31.460  23.965  1.00  0.00     0.005 C 
ATOM     23  H   UNL     1     -45.798  31.652  23.049  1.00  0.00     0.045 H 
ATOM     24  H   UNL     1     -47.400  31.763  23.777  1.00  0.00     0.045 H 
ATOM     25  H   UNL     1     -46.334  30.381  24.157  1.00  0.00     0.045 H 
ENDBRANCH  20  22
ENDBRANCH   6  20
ENDBRANCH   4   5
ENDBRANCH   1   4
BRANCH   1  26
ATOM     26  C   UNL     1     -44.260  39.283  28.195  1.00  0.00     0.123 C 
ATOM     27  O   UNL     1     -44.425  39.719  26.834  1.00  0.00    -0.345 OA
ATOM     28  C   UNL     1     -43.623  40.435  28.970  1.00  0.00     0.119 C 
ATOM     29  H   UNL     1     -43.591  38.414  28.168  1.00  0.00     0.067 H 
ATOM     30  C   UNL     1     -43.618  40.890  26.622  1.00  0.00     0.169 C 
ATOM     31  C   UNL     1     -42.840  41.167  27.900  1.00  0.00     0.173 C 
ATOM     32  H   UNL     1     -44.351  41.099  29.442  1.00  0.00     0.066 H 
ATOM     33  H   UNL     1     -42.911  40.645  25.822  1.00  0.00     0.088 H 
ATOM     34  F   UNL     1     -42.737  42.486  28.186  1.00  0.00    -0.239 F 
ATOM     35  H   UNL     1     -41.823  40.766  27.826  1.00  0.00     0.074 H 
BRANCH  28  36
ATOM     36  O   UNL     1     -42.757  39.947  29.998  1.00  0.00    -0.387 OA
ATOM     37  H   UNL     1     -41.868  40.309  29.836  1.00  0.00     0.211 HD
ENDBRANCH  28  36
BRANCH  30  38
ATOM     38  N   UNL     1     -44.472  41.954  26.116  1.00  0.00    -0.303 N 
ATOM     39  C   UNL     1     -45.792  42.110  26.473  1.00  0.00     0.013 A 
ATOM     40  C   UNL     1     -44.107  42.981  25.282  1.00  0.00     0.147 A 
ATOM     41  C   UNL     1     -46.300  43.239  25.853  1.00  0.00    -0.012 A 
ATOM     42  H   UNL     1     -46.266  41.408  27.149  1.00  0.00     0.082 H 
ATOM     43  C   UNL     1     -45.211  43.812  25.108  1.00  0.00     0.065 A 
ATOM     44  N   UNL     1     -42.889  43.156  24.740  1.00  0.00    -0.218 NA
ATOM     45  C   UNL     1     -45.011  44.946  24.299  1.00  0.00     0.136 A 
ATOM     46  C   UNL     1     -42.835  44.253  23.971  1.00  0.00     0.120 A 
ATOM     47  N   UNL     1     -43.809  45.144  23.727  1.00  0.00    -0.219 NA
ATOM     48  H   UNL     1     -41.884  44.452  23.489  1.00  0.00     0.106 H 
BRANCH  41  49
ATOM     49  C   UNL     1     -47.697  43.774  25.960  1.00  0.00     0.000 C 
ATOM     50  C   UNL     1     -48.771  42.766  26.368  1.00  0.00    -0.032 C 
ATOM     51  C   UNL     1     -47.851  44.913  26.984  1.00  0.00     0.005 C 
ATOM     52  H   UNL     1     -48.002  44.158  24.978  1.00  0.00     0.037 H 
ATOM     53  C   UNL     1     -49.843  43.656  26.970  1.00  0.00    -0.002 C 
ATOM     54  H   UNL     1     -48.414  42.053  27.121  1.00  0.00     0.029 H 
ATOM     55  H   UNL     1     -49.142  42.192  25.513  1.00  0.00     0.029 H 
ATOM     56  N   UNL     1     -49.053  44.593  27.769  1.00  0.00    -0.306 NA
ATOM     57  H   UNL     1     -47.947  45.866  26.448  1.00  0.00     0.044 H 
ATOM     58  H   UNL     1     -46.989  44.997  27.656  1.00  0.00     0.044 H 
ATOM     59  H   UNL     1     -50.402  44.166  26.175  1.00  0.00     0.043 H 
ATOM     60  H   UNL     1     -50.545  43.084  27.584  1.00  0.00     0.043 H 
BRANCH  56  61
ATOM     61  C   UNL     1     -49.807  45.770  28.169  1.00  0.00    -0.013 C 
ATOM     62  H   UNL     1     -49.622  46.596  27.474  1.00  0.00     0.039 H 
ATOM     63  H   UNL     1     -49.489  46.109  29.160  1.00  0.00     0.039 H 
ATOM     64  H   UNL     1     -50.886  45.582  28.201  1.00  0.00     0.039 H 
ENDBRANCH  56  61
ENDBRANCH  41  49
BRANCH  45  65
ATOM     65  N   UNL     1     -45.968  45.927  24.057  1.00  0.00    -0.383 N 
ATOM     66  H   UNL     1     -46.493  45.770  23.209  1.00  0.00     0.158 HD
ATOM     67  H   UNL     1     -46.539  46.032  24.891  1.00  0.00     0.158 HD
ENDBRANCH  45  65
ENDBRANCH  30  38
ENDBRANCH   1  26
TORSDOF 10
ENDMDL
MODEL 5
REMARK VINA RESULT:      -9.0      2.592      3.812
REMARK SMILES CNc1ccc2ccc(OC[C@H]3O[C@@H](n4cc([C@H]5CCN(C)C5)c5c(N)ncnc54)[C@@H](F)[C@@H]3O)cc2n1
REMARK SMILES IDX 11 1 10 4 9 5 3 6 4 7 37 8 5 9 36 11 6 12 35 14 7 15 8 17
REMARK SMILES IDX 2 20 1 22 12 26 13 27 33 28 14 30 31 31 32 34 34 36 15 38
REMARK SMILES IDX 16 39 30 40 17 41 24 43 29 44 25 45 28 46 27 47 18 49 19 50
REMARK SMILES IDX 23 51 20 53 21 56 22 61 26 65
REMARK H PARENT 11 2 11 3 4 10 5 13 35 16 7 18 8 19 2 21 1 23 1 24 1 25 12 29
REMARK H PARENT 33 32 14 33 31 35 34 37 16 42 28 48 18 52 19 54 19 55 23 57
REMARK H PARENT 23 58 20 59 20 60 22 62 22 63 22 64 26 66 26 67
REMARK Flexibility Score: inf
ROOT
ATOM      1  C   UNL     1     -47.424  35.076  27.690  1.00  0.00     0.117 C 
ATOM      2  H   UNL     1     -47.456  34.052  28.082  1.00  0.00     0.073 H 
ATOM      3  H   UNL     1     -48.373  35.537  27.978  1.00  0.00     0.073 H 
ENDROOT
BRANCH   1   4
ATOM      4  O   UNL     1     -47.309  34.935  26.269  1.00  0.00    -0.491 OA
BRANCH   4   5
ATOM      5  C   UNL     1     -47.474  33.702  25.702  1.00  0.00     0.121 A 
ATOM      6  C   UNL     1     -46.284  30.041  22.912  1.00  0.00     0.126 A 
ATOM      7  C   UNL     1     -47.379  29.293  23.319  1.00  0.00    -0.019 A 
ATOM      8  N   UNL     1     -46.054  31.288  23.357  1.00  0.00    -0.231 NA
ATOM      9  C   UNL     1     -48.257  29.843  24.247  1.00  0.00    -0.049 A 
ATOM     10  H   UNL     1     -47.558  28.304  22.915  1.00  0.00     0.066 H 
ATOM     11  C   UNL     1     -46.897  31.824  24.260  1.00  0.00     0.076 A 
ATOM     12  C   UNL     1     -48.022  31.128  24.743  1.00  0.00     0.001 A 
ATOM     13  H   UNL     1     -49.117  29.266  24.575  1.00  0.00     0.063 H 
ATOM     14  C   UNL     1     -46.652  33.104  24.745  1.00  0.00     0.007 A 
ATOM     15  C   UNL     1     -48.866  31.723  25.692  1.00  0.00    -0.049 A 
ATOM     16  H   UNL     1     -45.773  33.606  24.357  1.00  0.00     0.069 H 
ATOM     17  C   UNL     1     -48.586  33.002  26.170  1.00  0.00    -0.019 A 
ATOM     18  H   UNL     1     -49.737  31.193  26.071  1.00  0.00     0.063 H 
ATOM     19  H   UNL     1     -49.236  33.454  26.914  1.00  0.00     0.066 H 
BRANCH   6  20
ATOM     20  N   UNL     1     -45.351  29.557  21.990  1.00  0.00    -0.373 N 
ATOM     21  H   UNL     1     -44.760  30.371  21.822  1.00  0.00     0.161 HD
BRANCH  20  22
ATOM     22  C   UNL     1     -44.572  28.437  22.492  1.00  0.00     0.005 C 
ATOM     23  H   UNL     1     -43.593  28.438  22.003  1.00  0.00     0.045 H 
ATOM     24  H   UNL     1     -45.048  27.477  22.266  1.00  0.00     0.045 H 
ATOM     25  H   UNL     1     -44.405  28.512  23.573  1.00  0.00     0.045 H 
ENDBRANCH  20  22
ENDBRANCH   6  20
ENDBRANCH   4   5
ENDBRANCH   1   4
BRANCH   1  26
ATOM     26  C   UNL     1     -46.201  35.787  28.286  1.00  0.00     0.123 C 
ATOM     27  O   UNL     1     -45.789  36.883  27.451  1.00  0.00    -0.345 OA
ATOM     28  C   UNL     1     -46.489  36.354  29.675  1.00  0.00     0.119 C 
ATOM     29  H   UNL     1     -45.362  35.082  28.320  1.00  0.00     0.067 H 
ATOM     30  C   UNL     1     -45.446  38.000  28.288  1.00  0.00     0.169 C 
ATOM     31  C   UNL     1     -45.578  37.562  29.739  1.00  0.00     0.173 C 
ATOM     32  H   UNL     1     -47.532  36.646  29.821  1.00  0.00     0.066 H 
ATOM     33  H   UNL     1     -44.396  38.238  28.083  1.00  0.00     0.088 H 
ATOM     34  F   UNL     1     -46.095  38.523  30.541  1.00  0.00    -0.239 F 
ATOM     35  H   UNL     1     -44.599  37.284  30.148  1.00  0.00     0.074 H 
BRANCH  28  36
ATOM     36  O   UNL     1     -46.162  35.408  30.696  1.00  0.00    -0.387 OA
ATOM     37  H   UNL     1     -46.027  35.899  31.526  1.00  0.00     0.211 HD
ENDBRANCH  28  36
BRANCH  30  38
ATOM     38  N   UNL     1     -46.227  39.152  27.864  1.00  0.00    -0.303 N 
ATOM     39  C   UNL     1     -47.503  39.416  28.309  1.00  0.00     0.013 A 
ATOM     40  C   UNL     1     -45.821  40.167  27.035  1.00  0.00     0.147 A 
ATOM     41  C   UNL     1     -47.941  40.605  27.752  1.00  0.00    -0.012 A 
ATOM     42  H   UNL     1     -47.997  38.739  28.996  1.00  0.00     0.082 H 
ATOM     43  C   UNL     1     -46.851  41.100  26.953  1.00  0.00     0.065 A 
ATOM     44  N   UNL     1     -44.628  40.247  26.421  1.00  0.00    -0.218 NA
ATOM     45  C   UNL     1     -46.598  42.235  26.162  1.00  0.00     0.136 A 
ATOM     46  C   UNL     1     -44.520  41.359  25.679  1.00  0.00     0.120 A 
ATOM     47  N   UNL     1     -45.420  42.342  25.520  1.00  0.00    -0.219 NA
ATOM     48  H   UNL     1     -43.585  41.486  25.142  1.00  0.00     0.106 H 
BRANCH  41  49
ATOM     49  C   UNL     1     -49.274  41.261  27.961  1.00  0.00     0.000 C 
ATOM     50  C   UNL     1     -50.497  40.434  27.565  1.00  0.00    -0.032 C 
ATOM     51  C   UNL     1     -49.551  41.654  29.423  1.00  0.00     0.005 C 
ATOM     52  H   UNL     1     -49.316  42.172  27.351  1.00  0.00     0.037 H 
ATOM     53  C   UNL     1     -51.593  41.042  28.421  1.00  0.00    -0.002 C 
ATOM     54  H   UNL     1     -50.383  39.371  27.808  1.00  0.00     0.029 H 
ATOM     55  H   UNL     1     -50.717  40.512  26.496  1.00  0.00     0.029 H 
ATOM     56  N   UNL     1     -50.922  41.205  29.711  1.00  0.00    -0.306 NA
ATOM     57  H   UNL     1     -49.440  42.741  29.528  1.00  0.00     0.044 H 
ATOM     58  H   UNL     1     -48.857  41.181  30.127  1.00  0.00     0.044 H 
ATOM     59  H   UNL     1     -51.913  42.004  28.001  1.00  0.00     0.043 H 
ATOM     60  H   UNL     1     -52.463  40.381  28.493  1.00  0.00     0.043 H 
BRANCH  56  61
ATOM     61  C   UNL     1     -51.639  42.093  30.612  1.00  0.00    -0.013 C 
ATOM     62  H   UNL     1     -51.678  41.665  31.619  1.00  0.00     0.039 H 
ATOM     63  H   UNL     1     -52.673  42.222  30.278  1.00  0.00     0.039 H 
ATOM     64  H   UNL     1     -51.174  43.083  30.678  1.00  0.00     0.039 H 
ENDBRANCH  56  61
ENDBRANCH  41  49
BRANCH  45  65
ATOM     65  N   UNL     1     -47.473  43.306  26.007  1.00  0.00    -0.383 N 
ATOM     66  H   UNL     1     -48.151  43.376  26.753  1.00  0.00     0.158 HD
ATOM     67  H   UNL     1     -46.928  44.149  25.854  1.00  0.00     0.158 HD
ENDBRANCH  45  65
ENDBRANCH  30  38
ENDBRANCH   1  26
TORSDOF 10
ENDMDL
MODEL 6
REMARK VINA RESULT:      -8.8      3.303      5.617
REMARK SMILES CNc1ccc2ccc(OC[C@H]3O[C@@H](n4cc([C@H]5CCN(C)C5)c5c(N)ncnc54)[C@@H](F)[C@@H]3O)cc2n1
REMARK SMILES IDX 11 1 10 4 9 5 3 6 4 7 37 8 5 9 36 11 6 12 35 14 7 15 8 17
REMARK SMILES IDX 2 20 1 22 12 26 13 27 33 28 14 30 31 31 32 34 34 36 15 38
REMARK SMILES IDX 16 39 30 40 17 41 24 43 29 44 25 45 28 46 27 47 18 49 19 50
REMARK SMILES IDX 23 51 20 53 21 56 22 61 26 65
REMARK H PARENT 11 2 11 3 4 10 5 13 35 16 7 18 8 19 2 21 1 23 1 24 1 25 12 29
REMARK H PARENT 33 32 14 33 31 35 34 37 16 42 28 48 18 52 19 54 19 55 23 57
REMARK H PARENT 23 58 20 59 20 60 22 62 22 63 22 64 26 66 26 67
REMARK Flexibility Score: inf
ROOT
ATOM      1  C   UNL     1     -44.966  38.655  28.314  1.00  0.00     0.117 C 
ATOM      2  H   UNL     1     -44.552  37.656  28.134  1.00  0.00     0.073 H 
ATOM      3  H   UNL     1     -44.715  38.902  29.349  1.00  0.00     0.073 H 
ENDROOT
BRANCH   1   4
ATOM      4  O   UNL     1     -46.381  38.521  28.126  1.00  0.00    -0.491 OA
BRANCH   4   5
ATOM      5  C   UNL     1     -46.883  37.346  27.641  1.00  0.00     0.121 A 
ATOM      6  C   UNL     1     -46.629  33.069  25.579  1.00  0.00     0.126 A 
ATOM      7  C   UNL     1     -47.987  32.840  25.742  1.00  0.00    -0.019 A 
ATOM      8  N   UNL     1     -46.037  34.213  25.965  1.00  0.00    -0.231 NA
ATOM      9  C   UNL     1     -48.763  33.819  26.355  1.00  0.00    -0.049 A 
ATOM     10  H   UNL     1     -48.444  31.923  25.388  1.00  0.00     0.066 H 
ATOM     11  C   UNL     1     -46.781  35.161  26.564  1.00  0.00     0.076 A 
ATOM     12  C   UNL     1     -48.162  35.005  26.787  1.00  0.00     0.001 A 
ATOM     13  H   UNL     1     -49.827  33.650  26.490  1.00  0.00     0.063 H 
ATOM     14  C   UNL     1     -46.171  36.338  26.989  1.00  0.00     0.007 A 
ATOM     15  C   UNL     1     -48.893  36.017  27.426  1.00  0.00    -0.049 A 
ATOM     16  H   UNL     1     -45.105  36.420  26.808  1.00  0.00     0.069 H 
ATOM     17  C   UNL     1     -48.252  37.177  27.853  1.00  0.00    -0.019 A 
ATOM     18  H   UNL     1     -49.961  35.904  27.603  1.00  0.00     0.063 H 
ATOM     19  H   UNL     1     -48.820  37.954  28.358  1.00  0.00     0.066 H 
BRANCH   6  20
ATOM     20  N   UNL     1     -45.782  32.132  24.981  1.00  0.00    -0.373 N 
ATOM     21  H   UNL     1     -45.533  31.524  25.763  1.00  0.00     0.161 HD
BRANCH  20  22
ATOM     22  C   UNL     1     -46.418  31.378  23.913  1.00  0.00     0.005 C 
ATOM     23  H   UNL     1     -47.427  31.771  23.754  1.00  0.00     0.045 H 
ATOM     24  H   UNL     1     -46.518  30.318  24.169  1.00  0.00     0.045 H 
ATOM     25  H   UNL     1     -45.869  31.473  22.969  1.00  0.00     0.045 H 
ENDBRANCH  20  22
ENDBRANCH   6  20
ENDBRANCH   4   5
ENDBRANCH   1   4
BRANCH   1  26
ATOM     26  C   UNL     1     -44.353  39.626  27.295  1.00  0.00     0.123 C 
ATOM     27  O   UNL     1     -45.313  39.981  26.284  1.00  0.00    -0.345 OA
ATOM     28  C   UNL     1     -43.881  40.923  27.951  1.00  0.00     0.119 C 
ATOM     29  H   UNL     1     -43.524  39.125  26.781  1.00  0.00     0.067 H 
ATOM     30  C   UNL     1     -45.200  41.388  26.012  1.00  0.00     0.169 C 
ATOM     31  C   UNL     1     -44.053  41.941  26.844  1.00  0.00     0.173 C 
ATOM     32  H   UNL     1     -44.463  41.204  28.832  1.00  0.00     0.066 H 
ATOM     33  H   UNL     1     -44.948  41.484  24.950  1.00  0.00     0.088 H 
ATOM     34  F   UNL     1     -44.305  43.173  27.347  1.00  0.00    -0.239 F 
ATOM     35  H   UNL     1     -43.140  42.012  26.242  1.00  0.00     0.074 H 
BRANCH  28  36
ATOM     36  O   UNL     1     -42.512  40.826  28.354  1.00  0.00    -0.387 OA
ATOM     37  H   UNL     1     -42.320  41.581  28.939  1.00  0.00     0.211 HD
ENDBRANCH  28  36
BRANCH  30  38
ATOM     38  N   UNL     1     -46.509  41.999  26.188  1.00  0.00    -0.303 N 
ATOM     39  C   UNL     1     -47.526  41.429  26.920  1.00  0.00     0.013 A 
ATOM     40  C   UNL     1     -46.918  43.226  25.730  1.00  0.00     0.147 A 
ATOM     41  C   UNL     1     -48.615  42.284  26.926  1.00  0.00    -0.012 A 
ATOM     42  H   UNL     1     -47.392  40.461  27.388  1.00  0.00     0.082 H 
ATOM     43  C   UNL     1     -48.215  43.449  26.183  1.00  0.00     0.065 A 
ATOM     44  N   UNL     1     -46.182  44.070  24.985  1.00  0.00    -0.218 NA
ATOM     45  C   UNL     1     -48.791  44.684  25.832  1.00  0.00     0.136 A 
ATOM     46  C   UNL     1     -46.850  45.196  24.696  1.00  0.00     0.120 A 
ATOM     47  N   UNL     1     -48.089  45.546  25.073  1.00  0.00    -0.219 NA
ATOM     48  H   UNL     1     -46.321  45.921  24.084  1.00  0.00     0.106 H 
BRANCH  41  49
ATOM     49  C   UNL     1     -49.937  42.054  27.598  1.00  0.00     0.000 C 
ATOM     50  C   UNL     1     -50.356  40.594  27.770  1.00  0.00    -0.032 C 
ATOM     51  C   UNL     1     -50.021  42.633  29.021  1.00  0.00     0.005 C 
ATOM     52  H   UNL     1     -50.723  42.525  26.994  1.00  0.00     0.037 H 
ATOM     53  C   UNL     1     -51.315  40.666  28.945  1.00  0.00    -0.002 C 
ATOM     54  H   UNL     1     -49.512  39.941  28.019  1.00  0.00     0.029 H 
ATOM     55  H   UNL     1     -50.835  40.196  26.870  1.00  0.00     0.029 H 
ATOM     56  N   UNL     1     -50.620  41.579  29.854  1.00  0.00    -0.306 NA
ATOM     57  H   UNL     1     -50.633  43.544  29.002  1.00  0.00     0.044 H 
ATOM     58  H   UNL     1     -49.039  42.904  29.426  1.00  0.00     0.044 H 
ATOM     59  H   UNL     1     -52.283  41.069  28.621  1.00  0.00     0.043 H 
ATOM     60  H   UNL     1     -51.475  39.682  29.396  1.00  0.00     0.043 H 
BRANCH  56  61
ATOM     61  C   UNL     1     -51.483  42.097  30.902  1.00  0.00    -0.013 C 
ATOM     62  H   UNL     1     -52.496  41.695  30.796  1.00  0.00     0.039 H 
ATOM     63  H   UNL     1     -51.561  43.187  30.829  1.00  0.00     0.039 H 
ATOM     64  H   UNL     1     -51.117  41.846  31.904  1.00  0.00     0.039 H 
ENDBRANCH  56  61
ENDBRANCH  41  49
BRANCH  45  65
ATOM     65  N   UNL     1     -50.048  45.118  26.241  1.00  0.00    -0.383 N 
ATOM     66  H   UNL     1     -50.790  44.481  25.989  1.00  0.00     0.158 HD
ATOM     67  H   UNL     1     -50.005  45.344  27.230  1.00  0.00     0.158 HD
ENDBRANCH  45  65
ENDBRANCH  30  38
ENDBRANCH   1  26
TORSDOF 10
ENDMDL
MODEL 7
REMARK VINA RESULT:      -8.7      3.126      4.553
REMARK SMILES CNc1ccc2ccc(OC[C@H]3O[C@@H](n4cc([C@H]5CCN(C)C5)c5c(N)ncnc54)[C@@H](F)[C@@H]3O)cc2n1
REMARK SMILES IDX 11 1 10 4 9 5 3 6 4 7 37 8 5 9 36 11 6 12 35 14 7 15 8 17
REMARK SMILES IDX 2 20 1 22 12 26 13 27 33 28 14 30 31 31 32 34 34 36 15 38
REMARK SMILES IDX 16 39 30 40 17 41 24 43 29 44 25 45 28 46 27 47 18 49 19 50
REMARK SMILES IDX 23 51 20 53 21 56 22 61 26 65
REMARK H PARENT 11 2 11 3 4 10 5 13 35 16 7 18 8 19 2 21 1 23 1 24 1 25 12 29
REMARK H PARENT 33 32 14 33 31 35 34 37 16 42 28 48 18 52 19 54 19 55 23 57
REMARK H PARENT 23 58 20 59 20 60 22 62 22 63 22 64 26 66 26 67
REMARK Flexibility Score: inf
ROOT
ATOM      1  C   UNL     1     -48.190  34.853  26.894  1.00  0.00     0.117 C 
ATOM      2  H   UNL     1     -48.971  35.198  27.582  1.00  0.00     0.073 H 
ATOM      3  H   UNL     1     -48.493  35.197  25.900  1.00  0.00     0.073 H 
ENDROOT
BRANCH   1   4
ATOM      4  O   UNL     1     -48.203  33.423  26.990  1.00  0.00    -0.491 OA
BRANCH   4   5
ATOM      5  C   UNL     1     -48.039  32.674  25.859  1.00  0.00     0.121 A 
ATOM      6  C   UNL     1     -49.505  30.141  22.111  1.00  0.00     0.126 A 
ATOM      7  C   UNL     1     -48.210  29.956  21.651  1.00  0.00    -0.019 A 
ATOM      8  N   UNL     1     -49.781  30.810  23.245  1.00  0.00    -0.231 NA
ATOM      9  C   UNL     1     -47.157  30.507  22.373  1.00  0.00    -0.049 A 
ATOM     10  H   UNL     1     -48.016  29.381  20.753  1.00  0.00     0.066 H 
ATOM     11  C   UNL     1     -48.767  31.351  23.945  1.00  0.00     0.076 A 
ATOM     12  C   UNL     1     -47.423  31.229  23.540  1.00  0.00     0.001 A 
ATOM     13  H   UNL     1     -46.139  30.371  22.020  1.00  0.00     0.063 H 
ATOM     14  C   UNL     1     -49.045  32.066  25.105  1.00  0.00     0.007 A 
ATOM     15  C   UNL     1     -46.401  31.820  24.296  1.00  0.00    -0.049 A 
ATOM     16  H   UNL     1     -50.090  32.147  25.381  1.00  0.00     0.069 H 
ATOM     17  C   UNL     1     -46.713  32.542  25.446  1.00  0.00    -0.019 A 
ATOM     18  H   UNL     1     -45.361  31.730  23.991  1.00  0.00     0.063 H 
ATOM     19  H   UNL     1     -45.919  33.008  26.023  1.00  0.00     0.066 H 
BRANCH   6  20
ATOM     20  N   UNL     1     -50.617  29.626  21.438  1.00  0.00    -0.373 N 
ATOM     21  H   UNL     1     -51.111  29.122  22.176  1.00  0.00     0.161 HD
BRANCH  20  22
ATOM     22  C   UNL     1     -51.461  30.653  20.849  1.00  0.00     0.005 C 
ATOM     23  H   UNL     1     -51.147  31.631  21.228  1.00  0.00     0.045 H 
ATOM     24  H   UNL     1     -52.513  30.521  21.123  1.00  0.00     0.045 H 
ATOM     25  H   UNL     1     -51.371  30.673  19.757  1.00  0.00     0.045 H 
ENDBRANCH  20  22
ENDBRANCH   6  20
ENDBRANCH   4   5
ENDBRANCH   1   4
BRANCH   1  26
ATOM     26  C   UNL     1     -46.846  35.436  27.352  1.00  0.00     0.123 C 
ATOM     27  O   UNL     1     -46.519  36.619  26.601  1.00  0.00    -0.345 OA
ATOM     28  C   UNL     1     -46.863  35.823  28.830  1.00  0.00     0.119 C 
ATOM     29  H   UNL     1     -46.054  34.705  27.150  1.00  0.00     0.067 H 
ATOM     30  C   UNL     1     -45.978  37.602  27.500  1.00  0.00     0.169 C 
ATOM     31  C   UNL     1     -45.887  36.979  28.885  1.00  0.00     0.173 C 
ATOM     32  H   UNL     1     -47.849  36.128  29.190  1.00  0.00     0.066 H 
ATOM     33  H   UNL     1     -44.965  37.829  27.145  1.00  0.00     0.088 H 
ATOM     34  F   UNL     1     -46.207  37.842  29.878  1.00  0.00    -0.239 F 
ATOM     35  H   UNL     1     -44.871  36.616  29.079  1.00  0.00     0.074 H 
BRANCH  28  36
ATOM     36  O   UNL     1     -46.423  34.738  29.651  1.00  0.00    -0.387 OA
ATOM     37  H   UNL     1     -47.086  34.606  30.352  1.00  0.00     0.211 HD
ENDBRANCH  28  36
BRANCH  30  38
ATOM     38  N   UNL     1     -46.752  38.827  27.366  1.00  0.00    -0.303 N 
ATOM     39  C   UNL     1     -48.028  38.981  27.860  1.00  0.00     0.013 A 
ATOM     40  C   UNL     1     -46.340  40.010  26.808  1.00  0.00     0.147 A 
ATOM     41  C   UNL     1     -48.460  40.271  27.606  1.00  0.00    -0.012 A 
ATOM     42  H   UNL     1     -48.527  38.161  28.362  1.00  0.00     0.082 H 
ATOM     43  C   UNL     1     -47.366  40.940  26.953  1.00  0.00     0.065 A 
ATOM     44  N   UNL     1     -45.145  40.230  26.233  1.00  0.00    -0.218 NA
ATOM     45  C   UNL     1     -47.106  42.232  26.460  1.00  0.00     0.136 A 
ATOM     46  C   UNL     1     -45.030  41.488  25.781  1.00  0.00     0.120 A 
ATOM     47  N   UNL     1     -45.926  42.485  25.864  1.00  0.00    -0.219 NA
ATOM     48  H   UNL     1     -44.094  41.736  25.292  1.00  0.00     0.106 H 
BRANCH  41  49
ATOM     49  C   UNL     1     -49.790  40.864  27.967  1.00  0.00     0.000 C 
ATOM     50  C   UNL     1     -50.961  39.885  28.039  1.00  0.00    -0.032 C 
ATOM     51  C   UNL     1     -49.808  41.565  29.337  1.00  0.00     0.005 C 
ATOM     52  H   UNL     1     -50.062  41.604  27.204  1.00  0.00     0.037 H 
ATOM     53  C   UNL     1     -51.925  40.597  28.972  1.00  0.00    -0.002 C 
ATOM     54  H   UNL     1     -50.675  38.917  28.469  1.00  0.00     0.029 H 
ATOM     55  H   UNL     1     -51.402  39.697  27.055  1.00  0.00     0.029 H 
ATOM     56  N   UNL     1     -51.029  41.100  30.014  1.00  0.00    -0.306 NA
ATOM     57  H   UNL     1     -49.808  42.651  29.183  1.00  0.00     0.044 H 
ATOM     58  H   UNL     1     -48.935  41.317  29.951  1.00  0.00     0.044 H 
ATOM     59  H   UNL     1     -52.435  41.411  28.441  1.00  0.00     0.043 H 
ATOM     60  H   UNL     1     -52.677  39.912  29.375  1.00  0.00     0.043 H 
BRANCH  56  61
ATOM     61  C   UNL     1     -51.647  42.120  30.845  1.00  0.00    -0.013 C 
ATOM     62  H   UNL     1     -52.243  42.803  30.231  1.00  0.00     0.039 H 
ATOM     63  H   UNL     1     -50.881  42.723  31.343  1.00  0.00     0.039 H 
ATOM     64  H   UNL     1     -52.299  41.691  31.614  1.00  0.00     0.039 H 
ENDBRANCH  56  61
ENDBRANCH  41  49
BRANCH  45  65
ATOM     65  N   UNL     1     -47.976  43.312  26.568  1.00  0.00    -0.383 N 
ATOM     66  H   UNL     1     -48.469  43.512  25.710  1.00  0.00     0.158 HD
ATOM     67  H   UNL     1     -48.577  43.163  27.373  1.00  0.00     0.158 HD
ENDBRANCH  45  65
ENDBRANCH  30  38
ENDBRANCH   1  26
TORSDOF 10
ENDMDL
