MODEL 1
REMARK VINA RESULT:     -10.8      0.000      0.000
REMARK SMILES CNc1ccc2ccc(CC[C@H]3O[C@@H](n4cc(C5CCCC5)c5c(N)ncnc54)[C@H](O)[C@@H]3O)cc2n1
REMARK SMILES IDX 10 1 9 4 3 5 4 6 36 7 5 8 35 10 6 11 34 13 7 14 8 16 2 19
REMARK SMILES IDX 1 21 11 25 12 28 13 29 32 30 14 32 30 33 33 37 15 39 16 40
REMARK SMILES IDX 29 41 17 42 23 44 28 45 24 46 27 47 26 48 18 50 19 51 22 52
REMARK SMILES IDX 20 54 21 57 25 64 31 67
REMARK H PARENT 10 2 10 3 4 9 5 12 34 15 7 17 8 18 2 20 1 22 1 23 1 24 11 26
REMARK H PARENT 11 27 12 31 32 34 14 35 30 36 33 38 16 43 27 49 18 53 19 55
REMARK H PARENT 19 56 22 58 22 59 20 60 20 61 21 62 21 63 25 65 25 66 31 68
REMARK Flexibility Score: inf
ROOT
ATOM      1  C   UNL     1     -47.795  34.863  26.584  1.00  0.00    -0.025 C 
ATOM      2  H   UNL     1     -48.120  34.628  27.606  1.00  0.00     0.032 H 
ATOM      3  H   UNL     1     -48.655  35.353  26.109  1.00  0.00     0.032 H 
ENDROOT
BRANCH   1   4
ATOM      4  C   UNL     1     -47.513  33.597  25.813  1.00  0.00    -0.046 A 
ATOM      5  C   UNL     1     -48.826  29.162  24.668  1.00  0.00     0.126 A 
ATOM      6  C   UNL     1     -47.757  29.010  23.797  1.00  0.00    -0.019 A 
ATOM      7  N   UNL     1     -49.039  30.298  25.359  1.00  0.00    -0.231 NA
ATOM      8  C   UNL     1     -46.857  30.059  23.646  1.00  0.00    -0.049 A 
ATOM      9  H   UNL     1     -47.632  28.098  23.224  1.00  0.00     0.066 H 
ATOM     10  C   UNL     1     -48.171  31.315  25.215  1.00  0.00     0.073 A 
ATOM     11  C   UNL     1     -47.051  31.241  24.364  1.00  0.00     0.000 A 
ATOM     12  H   UNL     1     -46.019  29.951  22.963  1.00  0.00     0.063 H 
ATOM     13  C   UNL     1     -48.377  32.494  25.921  1.00  0.00    -0.033 A 
ATOM     14  C   UNL     1     -46.175  32.333  24.246  1.00  0.00    -0.053 A 
ATOM     15  H   UNL     1     -49.246  32.551  26.574  1.00  0.00     0.065 H 
ATOM     16  C   UNL     1     -46.405  33.501  24.969  1.00  0.00    -0.058 A 
ATOM     17  H   UNL     1     -45.315  32.282  23.582  1.00  0.00     0.063 H 
ATOM     18  H   UNL     1     -45.726  34.344  24.852  1.00  0.00     0.063 H 
BRANCH   5  19
ATOM     19  N   UNL     1     -49.780  28.159  24.858  1.00  0.00    -0.373 N 
ATOM     20  H   UNL     1     -50.645  28.676  25.008  1.00  0.00     0.161 HD
BRANCH  19  21
ATOM     21  C   UNL     1     -49.492  27.276  25.976  1.00  0.00     0.005 C 
ATOM     22  H   UNL     1     -50.405  27.142  26.566  1.00  0.00     0.045 H 
ATOM     23  H   UNL     1     -48.728  27.698  26.638  1.00  0.00     0.045 H 
ATOM     24  H   UNL     1     -49.174  26.284  25.639  1.00  0.00     0.045 H 
ENDBRANCH  19  21
ENDBRANCH   5  19
ENDBRANCH   1   4
BRANCH   1  25
ATOM     25  C   UNL     1     -46.618  35.850  26.604  1.00  0.00    -0.020 C 
ATOM     26  H   UNL     1     -45.757  35.415  26.081  1.00  0.00     0.030 H 
ATOM     27  H   UNL     1     -46.913  36.745  26.042  1.00  0.00     0.030 H 
BRANCH  25  28
ATOM     28  C   UNL     1     -46.206  36.292  28.012  1.00  0.00     0.089 C 
ATOM     29  O   UNL     1     -44.908  36.899  28.019  1.00  0.00    -0.349 OA
ATOM     30  C   UNL     1     -47.159  37.334  28.596  1.00  0.00     0.111 C 
ATOM     31  H   UNL     1     -46.166  35.406  28.659  1.00  0.00     0.063 H 
ATOM     32  C   UNL     1     -44.916  37.986  28.983  1.00  0.00     0.164 C 
ATOM     33  C   UNL     1     -46.286  37.964  29.669  1.00  0.00     0.128 C 
ATOM     34  H   UNL     1     -47.437  38.089  27.851  1.00  0.00     0.066 H 
ATOM     35  H   UNL     1     -44.088  37.815  29.680  1.00  0.00     0.088 H 
ATOM     36  H   UNL     1     -46.656  38.940  29.996  1.00  0.00     0.068 H 
BRANCH  30  37
ATOM     37  O   UNL     1     -48.337  36.772  29.164  1.00  0.00    -0.388 OA
ATOM     38  H   UNL     1     -48.070  35.991  29.681  1.00  0.00     0.211 HD
ENDBRANCH  30  37
BRANCH  32  39
ATOM     39  N   UNL     1     -44.646  39.242  28.286  1.00  0.00    -0.303 N 
ATOM     40  C   UNL     1     -45.294  39.738  27.183  1.00  0.00     0.013 A 
ATOM     41  C   UNL     1     -43.667  40.123  28.668  1.00  0.00     0.147 A 
ATOM     42  C   UNL     1     -44.729  40.955  26.836  1.00  0.00    -0.014 A 
ATOM     43  H   UNL     1     -46.093  39.177  26.713  1.00  0.00     0.082 H 
ATOM     44  C   UNL     1     -43.693  41.211  27.803  1.00  0.00     0.065 A 
ATOM     45  N   UNL     1     -42.844  39.948  29.715  1.00  0.00    -0.218 NA
ATOM     46  C   UNL     1     -42.757  42.228  28.065  1.00  0.00     0.136 A 
ATOM     47  C   UNL     1     -41.990  40.973  29.851  1.00  0.00     0.120 A 
ATOM     48  N   UNL     1     -41.909  42.087  29.104  1.00  0.00    -0.219 NA
ATOM     49  H   UNL     1     -41.282  40.898  30.670  1.00  0.00     0.106 H 
BRANCH  42  50
ATOM     50  C   UNL     1     -45.115  41.829  25.680  1.00  0.00    -0.014 C 
ATOM     51  C   UNL     1     -45.555  43.248  26.038  1.00  0.00    -0.046 C 
ATOM     52  C   UNL     1     -43.967  42.077  24.698  1.00  0.00    -0.046 C 
ATOM     53  H   UNL     1     -45.948  41.358  25.142  1.00  0.00     0.035 H 
ATOM     54  C   UNL     1     -45.527  43.961  24.694  1.00  0.00    -0.053 C 
ATOM     55  H   UNL     1     -46.548  43.274  26.499  1.00  0.00     0.027 H 
ATOM     56  H   UNL     1     -44.850  43.735  26.721  1.00  0.00     0.027 H 
ATOM     57  C   UNL     1     -44.324  43.370  23.963  1.00  0.00    -0.053 C 
ATOM     58  H   UNL     1     -43.013  42.208  25.225  1.00  0.00     0.027 H 
ATOM     59  H   UNL     1     -43.834  41.241  24.003  1.00  0.00     0.027 H 
ATOM     60  H   UNL     1     -46.445  43.741  24.135  1.00  0.00     0.027 H 
ATOM     61  H   UNL     1     -45.453  45.047  24.800  1.00  0.00     0.027 H 
ATOM     62  H   UNL     1     -44.566  43.179  22.912  1.00  0.00     0.027 H 
ATOM     63  H   UNL     1     -43.476  44.063  23.984  1.00  0.00     0.027 H 
ENDBRANCH  42  50
BRANCH  46  64
ATOM     64  N   UNL     1     -42.648  43.407  27.340  1.00  0.00    -0.383 N 
ATOM     65  H   UNL     1     -41.881  43.336  26.682  1.00  0.00     0.158 HD
ATOM     66  H   UNL     1     -42.663  44.243  27.906  1.00  0.00     0.158 HD
ENDBRANCH  46  64
ENDBRANCH  32  39
BRANCH  33  67
ATOM     67  O   UNL     1     -46.275  37.108  30.826  1.00  0.00    -0.386 OA
ATOM     68  H   UNL     1     -47.199  36.794  30.914  1.00  0.00     0.211 HD
ENDBRANCH  33  67
ENDBRANCH  25  28
ENDBRANCH   1  25
TORSDOF 10
ENDMDL
MODEL 2
REMARK VINA RESULT:     -10.1      1.567      2.212
REMARK SMILES CNc1ccc2ccc(CC[C@H]3O[C@@H](n4cc(C5CCCC5)c5c(N)ncnc54)[C@H](O)[C@@H]3O)cc2n1
REMARK SMILES IDX 10 1 9 4 3 5 4 6 36 7 5 8 35 10 6 11 34 13 7 14 8 16 2 19
REMARK SMILES IDX 1 21 11 25 12 28 13 29 32 30 14 32 30 33 33 37 15 39 16 40
REMARK SMILES IDX 29 41 17 42 23 44 28 45 24 46 27 47 26 48 18 50 19 51 22 52
REMARK SMILES IDX 20 54 21 57 25 64 31 67
REMARK H PARENT 10 2 10 3 4 9 5 12 34 15 7 17 8 18 2 20 1 22 1 23 1 24 11 26
REMARK H PARENT 11 27 12 31 32 34 14 35 30 36 33 38 16 43 27 49 18 53 19 55
REMARK H PARENT 19 56 22 58 22 59 20 60 20 61 21 62 21 63 25 65 25 66 31 68
REMARK Flexibility Score: inf
ROOT
ATOM      1  C   UNL     1     -45.671  34.064  26.982  1.00  0.00    -0.025 C 
ATOM      2  H   UNL     1     -44.620  33.964  26.682  1.00  0.00     0.032 H 
ATOM      3  H   UNL     1     -45.731  33.625  27.987  1.00  0.00     0.032 H 
ENDROOT
BRANCH   1   4
ATOM      4  C   UNL     1     -46.561  33.247  26.078  1.00  0.00    -0.046 A 
ATOM      5  C   UNL     1     -47.155  30.992  21.923  1.00  0.00     0.126 A 
ATOM      6  C   UNL     1     -48.419  30.549  22.279  1.00  0.00    -0.019 A 
ATOM      7  N   UNL     1     -46.392  31.738  22.744  1.00  0.00    -0.231 NA
ATOM      8  C   UNL     1     -48.933  30.906  23.522  1.00  0.00    -0.049 A 
ATOM      9  H   UNL     1     -48.996  29.916  21.614  1.00  0.00     0.066 H 
ATOM     10  C   UNL     1     -46.885  32.085  23.947  1.00  0.00     0.073 A 
ATOM     11  C   UNL     1     -48.165  31.692  24.383  1.00  0.00     0.000 A 
ATOM     12  H   UNL     1     -49.921  30.561  23.812  1.00  0.00     0.063 H 
ATOM     13  C   UNL     1     -46.110  32.855  24.806  1.00  0.00    -0.033 A 
ATOM     14  C   UNL     1     -48.633  32.078  25.650  1.00  0.00    -0.053 A 
ATOM     15  H   UNL     1     -45.119  33.153  24.468  1.00  0.00     0.065 H 
ATOM     16  C   UNL     1     -47.835  32.852  26.490  1.00  0.00    -0.058 A 
ATOM     17  H   UNL     1     -49.617  31.767  25.994  1.00  0.00     0.063 H 
ATOM     18  H   UNL     1     -48.206  33.128  27.475  1.00  0.00     0.063 H 
BRANCH   5  19
ATOM     19  N   UNL     1     -46.567  30.659  20.700  1.00  0.00    -0.373 N 
ATOM     20  H   UNL     1     -45.786  30.059  20.965  1.00  0.00     0.161 HD
BRANCH  19  21
ATOM     21  C   UNL     1     -46.114  31.806  19.931  1.00  0.00     0.005 C 
ATOM     22  H   UNL     1     -46.721  32.676  20.202  1.00  0.00     0.045 H 
ATOM     23  H   UNL     1     -46.229  31.641  18.854  1.00  0.00     0.045 H 
ATOM     24  H   UNL     1     -45.071  32.057  20.152  1.00  0.00     0.045 H 
ENDBRANCH  19  21
ENDBRANCH   5  19
ENDBRANCH   1   4
BRANCH   1  25
ATOM     25  C   UNL     1     -46.070  35.544  27.069  1.00  0.00    -0.020 C 
ATOM     26  H   UNL     1     -45.524  36.124  26.315  1.00  0.00     0.030 H 
ATOM     27  H   UNL     1     -47.136  35.626  26.822  1.00  0.00     0.030 H 
BRANCH  25  28
ATOM     28  C   UNL     1     -45.860  36.160  28.456  1.00  0.00     0.089 C 
ATOM     29  O   UNL     1     -44.611  36.858  28.543  1.00  0.00    -0.349 OA
ATOM     30  C   UNL     1     -46.937  37.187  28.806  1.00  0.00     0.111 C 
ATOM     31  H   UNL     1     -45.846  35.353  29.200  1.00  0.00     0.063 H 
ATOM     32  C   UNL     1     -44.800  38.036  29.371  1.00  0.00     0.164 C 
ATOM     33  C   UNL     1     -46.240  37.988  29.893  1.00  0.00     0.128 C 
ATOM     34  H   UNL     1     -47.167  37.837  27.953  1.00  0.00     0.066 H 
ATOM     35  H   UNL     1     -44.055  38.000  30.173  1.00  0.00     0.088 H 
ATOM     36  H   UNL     1     -46.704  38.963  30.063  1.00  0.00     0.068 H 
BRANCH  30  37
ATOM     37  O   UNL     1     -48.140  36.604  29.295  1.00  0.00    -0.388 OA
ATOM     38  H   UNL     1     -48.470  35.994  28.610  1.00  0.00     0.211 HD
ENDBRANCH  30  37
BRANCH  32  39
ATOM     39  N   UNL     1     -44.523  39.228  28.572  1.00  0.00    -0.303 N 
ATOM     40  C   UNL     1     -45.205  39.666  27.465  1.00  0.00     0.013 A 
ATOM     41  C   UNL     1     -43.499  40.099  28.845  1.00  0.00     0.147 A 
ATOM     42  C   UNL     1     -44.616  40.834  27.004  1.00  0.00    -0.014 A 
ATOM     43  H   UNL     1     -46.042  39.102  27.073  1.00  0.00     0.082 H 
ATOM     44  C   UNL     1     -43.530  41.122  27.904  1.00  0.00     0.065 A 
ATOM     45  N   UNL     1     -42.634  39.971  29.865  1.00  0.00    -0.218 NA
ATOM     46  C   UNL     1     -42.550  42.121  28.049  1.00  0.00     0.136 A 
ATOM     47  C   UNL     1     -41.742  40.972  29.888  1.00  0.00     0.120 A 
ATOM     48  N   UNL     1     -41.660  42.025  29.057  1.00  0.00    -0.219 NA
ATOM     49  H   UNL     1     -40.999  40.931  30.678  1.00  0.00     0.106 H 
BRANCH  42  50
ATOM     50  C   UNL     1     -45.028  41.636  25.806  1.00  0.00    -0.014 C 
ATOM     51  C   UNL     1     -45.428  43.085  26.080  1.00  0.00    -0.046 C 
ATOM     52  C   UNL     1     -43.911  41.791  24.769  1.00  0.00    -0.046 C 
ATOM     53  H   UNL     1     -45.888  41.147  25.330  1.00  0.00     0.035 H 
ATOM     54  C   UNL     1     -45.434  43.704  24.691  1.00  0.00    -0.053 C 
ATOM     55  H   UNL     1     -46.402  43.163  26.572  1.00  0.00     0.027 H 
ATOM     56  H   UNL     1     -44.690  43.602  26.703  1.00  0.00     0.027 H 
ATOM     57  C   UNL     1     -44.269  43.039  23.961  1.00  0.00    -0.053 C 
ATOM     58  H   UNL     1     -42.937  41.938  25.253  1.00  0.00     0.027 H 
ATOM     59  H   UNL     1     -43.819  40.908  24.130  1.00  0.00     0.027 H 
ATOM     60  H   UNL     1     -46.375  43.466  24.180  1.00  0.00     0.027 H 
ATOM     61  H   UNL     1     -45.335  44.792  24.718  1.00  0.00     0.027 H 
ATOM     62  H   UNL     1     -44.553  42.783  22.934  1.00  0.00     0.027 H 
ATOM     63  H   UNL     1     -43.408  43.714  23.905  1.00  0.00     0.027 H 
ENDBRANCH  42  50
BRANCH  46  64
ATOM     64  N   UNL     1     -42.437  43.241  27.235  1.00  0.00    -0.383 N 
ATOM     65  H   UNL     1     -42.157  44.041  27.791  1.00  0.00     0.158 HD
ATOM     66  H   UNL     1     -43.225  43.388  26.622  1.00  0.00     0.158 HD
ENDBRANCH  46  64
ENDBRANCH  32  39
BRANCH  33  67
ATOM     67  O   UNL     1     -46.319  37.260  31.133  1.00  0.00    -0.386 OA
ATOM     68  H   UNL     1     -46.321  36.317  30.870  1.00  0.00     0.211 HD
ENDBRANCH  33  67
ENDBRANCH  25  28
ENDBRANCH   1  25
TORSDOF 10
ENDMDL
MODEL 3
REMARK VINA RESULT:      -9.8      2.971      4.772
REMARK SMILES CNc1ccc2ccc(CC[C@H]3O[C@@H](n4cc(C5CCCC5)c5c(N)ncnc54)[C@H](O)[C@@H]3O)cc2n1
REMARK SMILES IDX 10 1 9 4 3 5 4 6 36 7 5 8 35 10 6 11 34 13 7 14 8 16 2 19
REMARK SMILES IDX 1 21 11 25 12 28 13 29 32 30 14 32 30 33 33 37 15 39 16 40
REMARK SMILES IDX 29 41 17 42 23 44 28 45 24 46 27 47 26 48 18 50 19 51 22 52
REMARK SMILES IDX 20 54 21 57 25 64 31 67
REMARK H PARENT 10 2 10 3 4 9 5 12 34 15 7 17 8 18 2 20 1 22 1 23 1 24 11 26
REMARK H PARENT 11 27 12 31 32 34 14 35 30 36 33 38 16 43 27 49 18 53 19 55
REMARK H PARENT 19 56 22 58 22 59 20 60 20 61 21 62 21 63 25 65 25 66 31 68
REMARK Flexibility Score: inf
ROOT
ATOM      1  C   UNL     1     -46.499  35.817  26.578  1.00  0.00    -0.025 C 
ATOM      2  H   UNL     1     -47.206  36.655  26.628  1.00  0.00     0.032 H 
ATOM      3  H   UNL     1     -45.787  36.082  25.786  1.00  0.00     0.032 H 
ENDROOT
BRANCH   1   4
ATOM      4  C   UNL     1     -47.204  34.554  26.146  1.00  0.00    -0.046 A 
ATOM      5  C   UNL     1     -47.020  30.382  23.851  1.00  0.00     0.126 A 
ATOM      6  C   UNL     1     -48.323  30.067  24.204  1.00  0.00    -0.019 A 
ATOM      7  N   UNL     1     -46.425  31.528  24.234  1.00  0.00    -0.231 NA
ATOM      8  C   UNL     1     -49.054  30.974  24.963  1.00  0.00    -0.049 A 
ATOM      9  H   UNL     1     -48.764  29.119  23.915  1.00  0.00     0.066 H 
ATOM     10  C   UNL     1     -47.129  32.408  24.970  1.00  0.00     0.073 A 
ATOM     11  C   UNL     1     -48.462  32.174  25.359  1.00  0.00     0.000 A 
ATOM     12  H   UNL     1     -50.075  30.734  25.248  1.00  0.00     0.063 H 
ATOM     13  C   UNL     1     -46.528  33.594  25.373  1.00  0.00    -0.033 A 
ATOM     14  C   UNL     1     -49.153  33.124  26.130  1.00  0.00    -0.053 A 
ATOM     15  H   UNL     1     -45.497  33.770  25.075  1.00  0.00     0.065 H 
ATOM     16  C   UNL     1     -48.527  34.307  26.517  1.00  0.00    -0.058 A 
ATOM     17  H   UNL     1     -50.179  32.942  26.441  1.00  0.00     0.063 H 
ATOM     18  H   UNL     1     -49.071  35.024  27.129  1.00  0.00     0.063 H 
BRANCH   5  19
ATOM     19  N   UNL     1     -46.219  29.513  23.106  1.00  0.00    -0.373 N 
ATOM     20  H   UNL     1     -45.559  29.148  23.792  1.00  0.00     0.161 HD
BRANCH  19  21
ATOM     21  C   UNL     1     -45.529  30.152  21.997  1.00  0.00     0.005 C 
ATOM     22  H   UNL     1     -44.961  31.006  22.377  1.00  0.00     0.045 H 
ATOM     23  H   UNL     1     -46.234  30.527  21.246  1.00  0.00     0.045 H 
ATOM     24  H   UNL     1     -44.815  29.473  21.519  1.00  0.00     0.045 H 
ENDBRANCH  19  21
ENDBRANCH   5  19
ENDBRANCH   1   4
BRANCH   1  25
ATOM     25  C   UNL     1     -45.732  35.675  27.900  1.00  0.00    -0.020 C 
ATOM     26  H   UNL     1     -46.393  35.267  28.675  1.00  0.00     0.030 H 
ATOM     27  H   UNL     1     -44.927  34.944  27.752  1.00  0.00     0.030 H 
BRANCH  25  28
ATOM     28  C   UNL     1     -45.097  36.981  28.389  1.00  0.00     0.089 C 
ATOM     29  O   UNL     1     -45.328  38.058  27.472  1.00  0.00    -0.349 OA
ATOM     30  C   UNL     1     -45.672  37.442  29.728  1.00  0.00     0.111 C 
ATOM     31  H   UNL     1     -44.012  36.835  28.469  1.00  0.00     0.063 H 
ATOM     32  C   UNL     1     -45.532  39.276  28.238  1.00  0.00     0.164 C 
ATOM     33  C   UNL     1     -45.314  38.918  29.712  1.00  0.00     0.128 C 
ATOM     34  H   UNL     1     -46.761  37.322  29.762  1.00  0.00     0.066 H 
ATOM     35  H   UNL     1     -44.819  40.021  27.870  1.00  0.00     0.088 H 
ATOM     36  H   UNL     1     -45.902  39.504  30.423  1.00  0.00     0.068 H 
BRANCH  30  37
ATOM     37  O   UNL     1     -45.089  36.789  30.852  1.00  0.00    -0.388 OA
ATOM     38  H   UNL     1     -44.214  37.191  31.003  1.00  0.00     0.211 HD
ENDBRANCH  30  37
BRANCH  32  39
ATOM     39  N   UNL     1     -46.875  39.788  27.968  1.00  0.00    -0.303 N 
ATOM     40  C   UNL     1     -48.069  39.253  28.382  1.00  0.00     0.013 A 
ATOM     41  C   UNL     1     -47.118  40.921  27.235  1.00  0.00     0.147 A 
ATOM     42  C   UNL     1     -49.105  40.043  27.909  1.00  0.00    -0.014 A 
ATOM     43  H   UNL     1     -48.093  38.338  28.962  1.00  0.00     0.082 H 
ATOM     44  C   UNL     1     -48.491  41.126  27.186  1.00  0.00     0.065 A 
ATOM     45  N   UNL     1     -46.169  41.694  26.680  1.00  0.00    -0.218 NA
ATOM     46  C   UNL     1     -48.919  42.266  26.481  1.00  0.00     0.136 A 
ATOM     47  C   UNL     1     -46.700  42.736  26.025  1.00  0.00     0.120 A 
ATOM     48  N   UNL     1     -47.998  43.065  25.905  1.00  0.00    -0.219 NA
ATOM     49  H   UNL     1     -45.995  43.401  25.536  1.00  0.00     0.106 H 
BRANCH  42  50
ATOM     50  C   UNL     1     -50.574  39.812  28.107  1.00  0.00    -0.014 C 
ATOM     51  C   UNL     1     -51.004  38.353  28.254  1.00  0.00    -0.046 C 
ATOM     52  C   UNL     1     -51.119  40.448  29.389  1.00  0.00    -0.046 C 
ATOM     53  H   UNL     1     -51.117  40.225  27.247  1.00  0.00     0.035 H 
ATOM     54  C   UNL     1     -52.424  38.470  28.785  1.00  0.00    -0.053 C 
ATOM     55  H   UNL     1     -50.960  37.807  27.306  1.00  0.00     0.027 H 
ATOM     56  H   UNL     1     -50.388  37.816  28.984  1.00  0.00     0.027 H 
ATOM     57  C   UNL     1     -52.393  39.672  29.725  1.00  0.00    -0.053 C 
ATOM     58  H   UNL     1     -50.404  40.351  30.216  1.00  0.00     0.027 H 
ATOM     59  H   UNL     1     -51.318  41.517  29.264  1.00  0.00     0.027 H 
ATOM     60  H   UNL     1     -53.118  38.665  27.957  1.00  0.00     0.027 H 
ATOM     61  H   UNL     1     -52.757  37.560  29.290  1.00  0.00     0.027 H 
ATOM     62  H   UNL     1     -53.286  40.292  29.590  1.00  0.00     0.027 H 
ATOM     63  H   UNL     1     -52.374  39.348  30.771  1.00  0.00     0.027 H 
ENDBRANCH  42  50
BRANCH  46  64
ATOM     64  N   UNL     1     -50.243  42.664  26.350  1.00  0.00    -0.383 N 
ATOM     65  H   UNL     1     -50.857  41.911  26.641  1.00  0.00     0.158 HD
ATOM     66  H   UNL     1     -50.461  43.087  25.460  1.00  0.00     0.158 HD
ENDBRANCH  46  64
ENDBRANCH  32  39
BRANCH  33  67
ATOM     67  O   UNL     1     -43.931  39.068  30.084  1.00  0.00    -0.386 OA
ATOM     68  H   UNL     1     -43.664  39.934  29.712  1.00  0.00     0.211 HD
ENDBRANCH  33  67
ENDBRANCH  25  28
ENDBRANCH   1  25
TORSDOF 10
ENDMDL
MODEL 4
REMARK VINA RESULT:      -9.7      4.018     11.532
REMARK SMILES CNc1ccc2ccc(CC[C@H]3O[C@@H](n4cc(C5CCCC5)c5c(N)ncnc54)[C@H](O)[C@@H]3O)cc2n1
REMARK SMILES IDX 10 1 9 4 3 5 4 6 36 7 5 8 35 10 6 11 34 13 7 14 8 16 2 19
REMARK SMILES IDX 1 21 11 25 12 28 13 29 32 30 14 32 30 33 33 37 15 39 16 40
REMARK SMILES IDX 29 41 17 42 23 44 28 45 24 46 27 47 26 48 18 50 19 51 22 52
REMARK SMILES IDX 20 54 21 57 25 64 31 67
REMARK H PARENT 10 2 10 3 4 9 5 12 34 15 7 17 8 18 2 20 1 22 1 23 1 24 11 26
REMARK H PARENT 11 27 12 31 32 34 14 35 30 36 33 38 16 43 27 49 18 53 19 55
REMARK H PARENT 19 56 22 58 22 59 20 60 20 61 21 62 21 63 25 65 25 66 31 68
REMARK Flexibility Score: inf
ROOT
ATOM      1  C   UNL     1     -46.520  33.675  27.296  1.00  0.00    -0.025 C 
ATOM      2  H   UNL     1     -47.431  33.196  27.677  1.00  0.00     0.032 H 
ATOM      3  H   UNL     1     -45.699  33.256  27.891  1.00  0.00     0.032 H 
ENDROOT
BRANCH   1   4
ATOM      4  C   UNL     1     -46.554  35.162  27.556  1.00  0.00    -0.046 A 
ATOM      5  C   UNL     1     -49.136  39.123  28.147  1.00  0.00     0.126 A 
ATOM      6  C   UNL     1     -48.007  39.890  28.389  1.00  0.00    -0.019 A 
ATOM      7  N   UNL     1     -49.072  37.801  27.897  1.00  0.00    -0.231 NA
ATOM      8  C   UNL     1     -46.757  39.281  28.351  1.00  0.00    -0.049 A 
ATOM      9  H   UNL     1     -48.091  40.945  28.627  1.00  0.00     0.066 H 
ATOM     10  C   UNL     1     -47.865  37.208  27.860  1.00  0.00     0.073 A 
ATOM     11  C   UNL     1     -46.666  37.914  28.079  1.00  0.00     0.000 A 
ATOM     12  H   UNL     1     -45.867  39.873  28.543  1.00  0.00     0.063 H 
ATOM     13  C   UNL     1     -47.782  35.845  27.603  1.00  0.00    -0.033 A 
ATOM     14  C   UNL     1     -45.431  37.248  28.032  1.00  0.00    -0.053 A 
ATOM     15  H   UNL     1     -48.710  35.300  27.439  1.00  0.00     0.065 H 
ATOM     16  C   UNL     1     -45.377  35.881  27.769  1.00  0.00    -0.058 A 
ATOM     17  H   UNL     1     -44.504  37.789  28.211  1.00  0.00     0.063 H 
ATOM     18  H   UNL     1     -44.413  35.377  27.754  1.00  0.00     0.063 H 
BRANCH   5  19
ATOM     19  N   UNL     1     -50.425  39.661  28.186  1.00  0.00    -0.373 N 
ATOM     20  H   UNL     1     -50.445  40.170  29.069  1.00  0.00     0.161 HD
BRANCH  19  21
ATOM     21  C   UNL     1     -51.482  38.666  28.125  1.00  0.00     0.005 C 
ATOM     22  H   UNL     1     -52.303  39.057  27.516  1.00  0.00     0.045 H 
ATOM     23  H   UNL     1     -51.883  38.442  29.120  1.00  0.00     0.045 H 
ATOM     24  H   UNL     1     -51.140  37.739  27.654  1.00  0.00     0.045 H 
ENDBRANCH  19  21
ENDBRANCH   5  19
ENDBRANCH   1   4
BRANCH   1  25
ATOM     25  C   UNL     1     -46.293  33.311  25.821  1.00  0.00    -0.020 C 
ATOM     26  H   UNL     1     -45.786  34.137  25.306  1.00  0.00     0.030 H 
ATOM     27  H   UNL     1     -45.616  32.448  25.783  1.00  0.00     0.030 H 
BRANCH  25  28
ATOM     28  C   UNL     1     -47.576  32.937  25.073  1.00  0.00     0.089 C 
ATOM     29  O   UNL     1     -47.304  32.108  23.936  1.00  0.00    -0.349 OA
ATOM     30  C   UNL     1     -48.549  32.143  25.945  1.00  0.00     0.111 C 
ATOM     31  H   UNL     1     -48.052  33.858  24.711  1.00  0.00     0.063 H 
ATOM     32  C   UNL     1     -48.377  31.137  23.809  1.00  0.00     0.164 C 
ATOM     33  C   UNL     1     -49.410  31.470  24.891  1.00  0.00     0.128 C 
ATOM     34  H   UNL     1     -48.028  31.385  26.542  1.00  0.00     0.066 H 
ATOM     35  H   UNL     1     -48.781  31.220  22.794  1.00  0.00     0.088 H 
ATOM     36  H   UNL     1     -49.965  30.613  25.282  1.00  0.00     0.068 H 
BRANCH  30  37
ATOM     37  O   UNL     1     -49.339  32.960  26.803  1.00  0.00    -0.388 OA
ATOM     38  H   UNL     1     -48.782  33.706  27.093  1.00  0.00     0.211 HD
ENDBRANCH  30  37
BRANCH  32  39
ATOM     39  N   UNL     1     -47.820  29.792  23.948  1.00  0.00    -0.303 N 
ATOM     40  C   UNL     1     -48.339  28.745  24.666  1.00  0.00     0.013 A 
ATOM     41  C   UNL     1     -46.654  29.392  23.344  1.00  0.00     0.147 A 
ATOM     42  C   UNL     1     -47.500  27.649  24.537  1.00  0.00    -0.014 A 
ATOM     43  H   UNL     1     -49.252  28.866  25.235  1.00  0.00     0.082 H 
ATOM     44  C   UNL     1     -46.426  28.061  23.671  1.00  0.00     0.065 A 
ATOM     45  N   UNL     1     -45.889  30.171  22.562  1.00  0.00    -0.218 NA
ATOM     46  C   UNL     1     -45.271  27.480  23.116  1.00  0.00     0.136 A 
ATOM     47  C   UNL     1     -44.813  29.512  22.108  1.00  0.00     0.120 A 
ATOM     48  N   UNL     1     -44.473  28.231  22.330  1.00  0.00    -0.219 NA
ATOM     49  H   UNL     1     -44.137  30.081  21.478  1.00  0.00     0.106 H 
BRANCH  42  50
ATOM     50  C   UNL     1     -47.675  26.303  25.175  1.00  0.00    -0.014 C 
ATOM     51  C   UNL     1     -46.761  26.007  26.364  1.00  0.00    -0.046 C 
ATOM     52  C   UNL     1     -49.071  26.093  25.770  1.00  0.00    -0.046 C 
ATOM     53  H   UNL     1     -47.490  25.527  24.422  1.00  0.00     0.035 H 
ATOM     54  C   UNL     1     -47.405  24.779  26.988  1.00  0.00    -0.053 C 
ATOM     55  H   UNL     1     -45.726  25.822  26.058  1.00  0.00     0.027 H 
ATOM     56  H   UNL     1     -46.759  26.825  27.093  1.00  0.00     0.027 H 
ATOM     57  C   UNL     1     -48.907  24.999  26.827  1.00  0.00    -0.053 C 
ATOM     58  H   UNL     1     -49.442  27.008  26.247  1.00  0.00     0.027 H 
ATOM     59  H   UNL     1     -49.804  25.811  25.008  1.00  0.00     0.027 H 
ATOM     60  H   UNL     1     -47.102  23.878  26.440  1.00  0.00     0.027 H 
ATOM     61  H   UNL     1     -47.118  24.644  28.035  1.00  0.00     0.027 H 
ATOM     62  H   UNL     1     -49.403  24.072  26.524  1.00  0.00     0.027 H 
ATOM     63  H   UNL     1     -49.358  25.318  27.774  1.00  0.00     0.027 H 
ENDBRANCH  42  50
BRANCH  46  64
ATOM     64  N   UNL     1     -44.888  26.157  23.293  1.00  0.00    -0.383 N 
ATOM     65  H   UNL     1     -44.144  26.104  23.979  1.00  0.00     0.158 HD
ATOM     66  H   UNL     1     -44.727  25.655  22.433  1.00  0.00     0.158 HD
ENDBRANCH  46  64
ENDBRANCH  32  39
BRANCH  33  67
ATOM     67  O   UNL     1     -50.382  32.416  24.407  1.00  0.00    -0.386 OA
ATOM     68  H   UNL     1     -50.245  32.444  23.438  1.00  0.00     0.211 HD
ENDBRANCH  33  67
ENDBRANCH  25  28
ENDBRANCH   1  25
TORSDOF 10
ENDMDL
MODEL 5
REMARK VINA RESULT:      -9.4      2.807     10.720
REMARK SMILES CNc1ccc2ccc(CC[C@H]3O[C@@H](n4cc(C5CCCC5)c5c(N)ncnc54)[C@H](O)[C@@H]3O)cc2n1
REMARK SMILES IDX 10 1 9 4 3 5 4 6 36 7 5 8 35 10 6 11 34 13 7 14 8 16 2 19
REMARK SMILES IDX 1 21 11 25 12 28 13 29 32 30 14 32 30 33 33 37 15 39 16 40
REMARK SMILES IDX 29 41 17 42 23 44 28 45 24 46 27 47 26 48 18 50 19 51 22 52
REMARK SMILES IDX 20 54 21 57 25 64 31 67
REMARK H PARENT 10 2 10 3 4 9 5 12 34 15 7 17 8 18 2 20 1 22 1 23 1 24 11 26
REMARK H PARENT 11 27 12 31 32 34 14 35 30 36 33 38 16 43 27 49 18 53 19 55
REMARK H PARENT 19 56 22 58 22 59 20 60 20 61 21 62 21 63 25 65 25 66 31 68
REMARK Flexibility Score: inf
ROOT
ATOM      1  C   UNL     1     -48.910  36.402  27.842  1.00  0.00    -0.025 C 
ATOM      2  H   UNL     1     -49.675  37.166  27.658  1.00  0.00     0.032 H 
ATOM      3  H   UNL     1     -49.280  35.816  28.694  1.00  0.00     0.032 H 
ENDROOT
BRANCH   1   4
ATOM      4  C   UNL     1     -47.611  37.043  28.267  1.00  0.00    -0.046 A 
ATOM      5  C   UNL     1     -44.393  40.500  27.635  1.00  0.00     0.126 A 
ATOM      6  C   UNL     1     -43.631  40.064  28.709  1.00  0.00    -0.019 A 
ATOM      7  N   UNL     1     -45.537  39.893  27.267  1.00  0.00    -0.231 NA
ATOM      8  C   UNL     1     -44.049  38.946  29.422  1.00  0.00    -0.049 A 
ATOM      9  H   UNL     1     -42.734  40.596  29.007  1.00  0.00     0.066 H 
ATOM     10  C   UNL     1     -45.946  38.811  27.955  1.00  0.00     0.073 A 
ATOM     11  C   UNL     1     -45.226  38.292  29.049  1.00  0.00     0.000 A 
ATOM     12  H   UNL     1     -43.461  38.600  30.267  1.00  0.00     0.063 H 
ATOM     13  C   UNL     1     -47.125  38.174  27.588  1.00  0.00    -0.033 A 
ATOM     14  C   UNL     1     -45.696  37.162  29.736  1.00  0.00    -0.053 A 
ATOM     15  H   UNL     1     -47.681  38.579  26.746  1.00  0.00     0.065 H 
ATOM     16  C   UNL     1     -46.880  36.541  29.345  1.00  0.00    -0.058 A 
ATOM     17  H   UNL     1     -45.147  36.765  30.588  1.00  0.00     0.063 H 
ATOM     18  H   UNL     1     -47.239  35.676  29.899  1.00  0.00     0.063 H 
BRANCH   5  19
ATOM     19  N   UNL     1     -44.045  41.625  26.883  1.00  0.00    -0.373 N 
ATOM     20  H   UNL     1     -44.486  42.395  27.386  1.00  0.00     0.161 HD
BRANCH  19  21
ATOM     21  C   UNL     1     -44.492  41.572  25.501  1.00  0.00     0.005 C 
ATOM     22  H   UNL     1     -43.653  41.268  24.868  1.00  0.00     0.045 H 
ATOM     23  H   UNL     1     -44.836  42.552  25.151  1.00  0.00     0.045 H 
ATOM     24  H   UNL     1     -45.289  40.835  25.361  1.00  0.00     0.045 H 
ENDBRANCH  19  21
ENDBRANCH   5  19
ENDBRANCH   1   4
BRANCH   1  25
ATOM     25  C   UNL     1     -48.771  35.470  26.630  1.00  0.00    -0.020 C 
ATOM     26  H   UNL     1     -49.760  35.260  26.204  1.00  0.00     0.030 H 
ATOM     27  H   UNL     1     -48.197  35.997  25.858  1.00  0.00     0.030 H 
BRANCH  25  28
ATOM     28  C   UNL     1     -48.046  34.156  26.941  1.00  0.00     0.089 C 
ATOM     29  O   UNL     1     -48.896  33.020  26.736  1.00  0.00    -0.349 OA
ATOM     30  C   UNL     1     -46.831  33.935  26.041  1.00  0.00     0.111 C 
ATOM     31  H   UNL     1     -47.744  34.164  27.996  1.00  0.00     0.063 H 
ATOM     32  C   UNL     1     -48.093  31.938  26.193  1.00  0.00     0.164 C 
ATOM     33  C   UNL     1     -46.643  32.432  26.161  1.00  0.00     0.128 C 
ATOM     34  H   UNL     1     -47.045  34.203  25.000  1.00  0.00     0.066 H 
ATOM     35  H   UNL     1     -48.232  31.067  26.842  1.00  0.00     0.088 H 
ATOM     36  H   UNL     1     -46.030  32.017  25.356  1.00  0.00     0.068 H 
BRANCH  30  37
ATOM     37  O   UNL     1     -45.667  34.630  26.478  1.00  0.00    -0.388 OA
ATOM     38  H   UNL     1     -45.396  34.242  27.330  1.00  0.00     0.211 HD
ENDBRANCH  30  37
BRANCH  32  39
ATOM     39  N   UNL     1     -48.605  31.584  24.871  1.00  0.00    -0.303 N 
ATOM     40  C   UNL     1     -49.905  31.646  24.437  1.00  0.00     0.013 A 
ATOM     41  C   UNL     1     -47.810  31.125  23.851  1.00  0.00     0.147 A 
ATOM     42  C   UNL     1     -49.963  31.217  23.120  1.00  0.00    -0.014 A 
ATOM     43  H   UNL     1     -50.695  31.967  25.105  1.00  0.00     0.082 H 
ATOM     44  C   UNL     1     -48.611  30.900  22.738  1.00  0.00     0.065 A 
ATOM     45  N   UNL     1     -46.481  30.947  23.936  1.00  0.00    -0.218 NA
ATOM     46  C   UNL     1     -47.948  30.439  21.586  1.00  0.00     0.136 A 
ATOM     47  C   UNL     1     -45.968  30.492  22.783  1.00  0.00     0.120 A 
ATOM     48  N   UNL     1     -46.614  30.242  21.631  1.00  0.00    -0.219 NA
ATOM     49  H   UNL     1     -44.898  30.310  22.777  1.00  0.00     0.106 H 
BRANCH  42  50
ATOM     50  C   UNL     1     -51.189  31.103  22.264  1.00  0.00    -0.014 C 
ATOM     51  C   UNL     1     -51.153  31.872  20.944  1.00  0.00    -0.046 C 
ATOM     52  C   UNL     1     -51.476  29.671  21.805  1.00  0.00    -0.046 C 
ATOM     53  H   UNL     1     -52.053  31.474  22.831  1.00  0.00     0.035 H 
ATOM     54  C   UNL     1     -52.328  31.286  20.178  1.00  0.00    -0.053 C 
ATOM     55  H   UNL     1     -51.250  32.953  21.088  1.00  0.00     0.027 H 
ATOM     56  H   UNL     1     -50.228  31.685  20.387  1.00  0.00     0.027 H 
ATOM     57  C   UNL     1     -52.339  29.805  20.550  1.00  0.00    -0.053 C 
ATOM     58  H   UNL     1     -50.548  29.140  21.555  1.00  0.00     0.027 H 
ATOM     59  H   UNL     1     -51.979  29.084  22.581  1.00  0.00     0.027 H 
ATOM     60  H   UNL     1     -53.262  31.757  20.509  1.00  0.00     0.027 H 
ATOM     61  H   UNL     1     -52.241  31.439  19.099  1.00  0.00     0.027 H 
ATOM     62  H   UNL     1     -53.362  29.459  20.729  1.00  0.00     0.027 H 
ATOM     63  H   UNL     1     -51.923  29.197  19.739  1.00  0.00     0.027 H 
ENDBRANCH  42  50
BRANCH  46  64
ATOM     64  N   UNL     1     -48.563  30.191  20.366  1.00  0.00    -0.383 N 
ATOM     65  H   UNL     1     -48.488  31.009  19.772  1.00  0.00     0.158 HD
ATOM     66  H   UNL     1     -49.485  29.788  20.442  1.00  0.00     0.158 HD
ENDBRANCH  46  64
ENDBRANCH  32  39
BRANCH  33  67
ATOM     67  O   UNL     1     -45.967  32.143  27.399  1.00  0.00    -0.386 OA
ATOM     68  H   UNL     1     -46.350  31.293  27.701  1.00  0.00     0.211 HD
ENDBRANCH  33  67
ENDBRANCH  25  28
ENDBRANCH   1  25
TORSDOF 10
ENDMDL
MODEL 6
REMARK VINA RESULT:      -9.3      3.200      5.372
REMARK SMILES CNc1ccc2ccc(CC[C@H]3O[C@@H](n4cc(C5CCCC5)c5c(N)ncnc54)[C@H](O)[C@@H]3O)cc2n1
REMARK SMILES IDX 10 1 9 4 3 5 4 6 36 7 5 8 35 10 6 11 34 13 7 14 8 16 2 19
REMARK SMILES IDX 1 21 11 25 12 28 13 29 32 30 14 32 30 33 33 37 15 39 16 40
REMARK SMILES IDX 29 41 17 42 23 44 28 45 24 46 27 47 26 48 18 50 19 51 22 52
REMARK SMILES IDX 20 54 21 57 25 64 31 67
REMARK H PARENT 10 2 10 3 4 9 5 12 34 15 7 17 8 18 2 20 1 22 1 23 1 24 11 26
REMARK H PARENT 11 27 12 31 32 34 14 35 30 36 33 38 16 43 27 49 18 53 19 55
REMARK H PARENT 19 56 22 58 22 59 20 60 20 61 21 62 21 63 25 65 25 66 31 68
REMARK Flexibility Score: inf
ROOT
ATOM      1  C   UNL     1     -46.568  38.704  27.889  1.00  0.00    -0.025 C 
ATOM      2  H   UNL     1     -47.118  39.143  28.731  1.00  0.00     0.032 H 
ATOM      3  H   UNL     1     -46.700  39.406  27.056  1.00  0.00     0.032 H 
ENDROOT
BRANCH   1   4
ATOM      4  C   UNL     1     -47.191  37.392  27.475  1.00  0.00    -0.046 A 
ATOM      5  C   UNL     1     -46.653  33.078  25.526  1.00  0.00     0.126 A 
ATOM      6  C   UNL     1     -47.980  32.747  25.754  1.00  0.00    -0.019 A 
ATOM      7  N   UNL     1     -46.131  34.265  25.888  1.00  0.00    -0.231 NA
ATOM      8  C   UNL     1     -48.813  33.682  26.359  1.00  0.00    -0.049 A 
ATOM      9  H   UNL     1     -48.363  31.768  25.488  1.00  0.00     0.066 H 
ATOM     10  C   UNL     1     -46.934  35.172  26.474  1.00  0.00     0.073 A 
ATOM     11  C   UNL     1     -48.296  34.925  26.730  1.00  0.00     0.000 A 
ATOM     12  H   UNL     1     -49.853  33.431  26.546  1.00  0.00     0.063 H 
ATOM     13  C   UNL     1     -46.410  36.402  26.854  1.00  0.00    -0.033 A 
ATOM     14  C   UNL     1     -49.092  35.905  27.347  1.00  0.00    -0.053 A 
ATOM     15  H   UNL     1     -45.356  36.589  26.659  1.00  0.00     0.065 H 
ATOM     16  C   UNL     1     -48.541  37.131  27.714  1.00  0.00    -0.058 A 
ATOM     17  H   UNL     1     -50.142  35.713  27.555  1.00  0.00     0.063 H 
ATOM     18  H   UNL     1     -49.167  37.871  28.207  1.00  0.00     0.063 H 
BRANCH   5  19
ATOM     19  N   UNL     1     -45.753  32.184  24.939  1.00  0.00    -0.373 N 
ATOM     20  H   UNL     1     -45.011  32.788  24.586  1.00  0.00     0.161 HD
BRANCH  19  21
ATOM     21  C   UNL     1     -46.330  31.379  23.876  1.00  0.00     0.005 C 
ATOM     22  H   UNL     1     -45.924  31.714  22.917  1.00  0.00     0.045 H 
ATOM     23  H   UNL     1     -47.419  31.488  23.833  1.00  0.00     0.045 H 
ATOM     24  H   UNL     1     -46.075  30.319  23.985  1.00  0.00     0.045 H 
ENDBRANCH  19  21
ENDBRANCH   5  19
ENDBRANCH   1   4
BRANCH   1  25
ATOM     25  C   UNL     1     -45.071  38.602  28.213  1.00  0.00    -0.020 C 
ATOM     26  H   UNL     1     -44.910  38.755  29.287  1.00  0.00     0.030 H 
ATOM     27  H   UNL     1     -44.740  37.581  27.983  1.00  0.00     0.030 H 
BRANCH  25  28
ATOM     28  C   UNL     1     -44.198  39.571  27.410  1.00  0.00     0.089 C 
ATOM     29  O   UNL     1     -44.846  39.994  26.203  1.00  0.00    -0.349 OA
ATOM     30  C   UNL     1     -43.884  40.851  28.185  1.00  0.00     0.111 C 
ATOM     31  H   UNL     1     -43.269  39.057  27.130  1.00  0.00     0.063 H 
ATOM     32  C   UNL     1     -44.510  41.387  25.966  1.00  0.00     0.164 C 
ATOM     33  C   UNL     1     -43.515  41.798  27.056  1.00  0.00     0.128 C 
ATOM     34  H   UNL     1     -44.767  41.228  28.715  1.00  0.00     0.066 H 
ATOM     35  H   UNL     1     -44.090  41.458  24.957  1.00  0.00     0.088 H 
ATOM     36  H   UNL     1     -43.562  42.849  27.354  1.00  0.00     0.068 H 
BRANCH  30  37
ATOM     37  O   UNL     1     -42.806  40.709  29.104  1.00  0.00    -0.388 OA
ATOM     38  H   UNL     1     -42.101  40.209  28.654  1.00  0.00     0.211 HD
ENDBRANCH  30  37
BRANCH  32  39
ATOM     39  N   UNL     1     -45.737  42.181  25.984  1.00  0.00    -0.303 N 
ATOM     40  C   UNL     1     -46.960  41.813  26.485  1.00  0.00     0.013 A 
ATOM     41  C   UNL     1     -45.820  43.455  25.481  1.00  0.00     0.147 A 
ATOM     42  C   UNL     1     -47.856  42.856  26.302  1.00  0.00    -0.014 A 
ATOM     43  H   UNL     1     -47.108  40.829  26.912  1.00  0.00     0.082 H 
ATOM     44  C   UNL     1     -47.116  43.918  25.672  1.00  0.00     0.065 A 
ATOM     45  N   UNL     1     -44.801  44.124  24.916  1.00  0.00    -0.218 NA
ATOM     46  C   UNL     1     -47.374  45.228  25.226  1.00  0.00     0.136 A 
ATOM     47  C   UNL     1     -45.173  45.349  24.518  1.00  0.00     0.120 A 
ATOM     48  N   UNL     1     -46.378  45.931  24.648  1.00  0.00    -0.219 NA
ATOM     49  H   UNL     1     -44.406  45.948  24.039  1.00  0.00     0.106 H 
BRANCH  42  50
ATOM     50  C   UNL     1     -49.307  42.871  26.681  1.00  0.00    -0.014 C 
ATOM     51  C   UNL     1     -49.955  41.503  26.887  1.00  0.00    -0.046 C 
ATOM     52  C   UNL     1     -49.576  43.571  28.016  1.00  0.00    -0.046 C 
ATOM     53  H   UNL     1     -49.874  43.382  25.892  1.00  0.00     0.035 H 
ATOM     54  C   UNL     1     -51.260  41.849  27.588  1.00  0.00    -0.053 C 
ATOM     55  H   UNL     1     -50.119  40.972  25.944  1.00  0.00     0.027 H 
ATOM     56  H   UNL     1     -49.353  40.860  27.539  1.00  0.00     0.027 H 
ATOM     57  C   UNL     1     -50.912  43.014  28.511  1.00  0.00    -0.053 C 
ATOM     58  H   UNL     1     -48.792  43.342  28.750  1.00  0.00     0.027 H 
ATOM     59  H   UNL     1     -49.606  44.660  27.911  1.00  0.00     0.027 H 
ATOM     60  H   UNL     1     -52.006  42.170  26.851  1.00  0.00     0.027 H 
ATOM     61  H   UNL     1     -51.677  40.999  28.136  1.00  0.00     0.027 H 
ATOM     62  H   UNL     1     -51.698  43.777  28.483  1.00  0.00     0.027 H 
ATOM     63  H   UNL     1     -50.819  42.676  29.548  1.00  0.00     0.027 H 
ENDBRANCH  42  50
BRANCH  46  64
ATOM     64  N   UNL     1     -48.590  45.883  25.358  1.00  0.00    -0.383 N 
ATOM     65  H   UNL     1     -49.319  45.212  25.577  1.00  0.00     0.158 HD
ATOM     66  H   UNL     1     -48.799  46.525  24.607  1.00  0.00     0.158 HD
ENDBRANCH  46  64
ENDBRANCH  32  39
BRANCH  33  67
ATOM     67  O   UNL     1     -42.159  41.535  26.650  1.00  0.00    -0.386 OA
ATOM     68  H   UNL     1     -42.220  40.745  26.073  1.00  0.00     0.211 HD
ENDBRANCH  33  67
ENDBRANCH  25  28
ENDBRANCH   1  25
TORSDOF 10
ENDMDL
MODEL 7
REMARK VINA RESULT:      -9.1      3.061     11.877
REMARK SMILES CNc1ccc2ccc(CC[C@H]3O[C@@H](n4cc(C5CCCC5)c5c(N)ncnc54)[C@H](O)[C@@H]3O)cc2n1
REMARK SMILES IDX 10 1 9 4 3 5 4 6 36 7 5 8 35 10 6 11 34 13 7 14 8 16 2 19
REMARK SMILES IDX 1 21 11 25 12 28 13 29 32 30 14 32 30 33 33 37 15 39 16 40
REMARK SMILES IDX 29 41 17 42 23 44 28 45 24 46 27 47 26 48 18 50 19 51 22 52
REMARK SMILES IDX 20 54 21 57 25 64 31 67
REMARK H PARENT 10 2 10 3 4 9 5 12 34 15 7 17 8 18 2 20 1 22 1 23 1 24 11 26
REMARK H PARENT 11 27 12 31 32 34 14 35 30 36 33 38 16 43 27 49 18 53 19 55
REMARK H PARENT 19 56 22 58 22 59 20 60 20 61 21 62 21 63 25 65 25 66 31 68
REMARK Flexibility Score: inf
ROOT
ATOM      1  C   UNL     1     -48.513  34.332  26.643  1.00  0.00    -0.025 C 
ATOM      2  H   UNL     1     -49.196  34.829  25.942  1.00  0.00     0.032 H 
ATOM      3  H   UNL     1     -49.141  34.012  27.485  1.00  0.00     0.032 H 
ENDROOT
BRANCH   1   4
ATOM      4  C   UNL     1     -47.500  35.312  27.182  1.00  0.00    -0.046 A 
ATOM      5  C   UNL     1     -45.682  39.716  27.127  1.00  0.00     0.126 A 
ATOM      6  C   UNL     1     -44.784  39.419  28.140  1.00  0.00    -0.019 A 
ATOM      7  N   UNL     1     -46.561  38.813  26.652  1.00  0.00    -0.231 NA
ATOM      8  C   UNL     1     -44.770  38.134  28.673  1.00  0.00    -0.049 A 
ATOM      9  H   UNL     1     -44.114  40.177  28.530  1.00  0.00     0.066 H 
ATOM     10  C   UNL     1     -46.552  37.569  27.166  1.00  0.00     0.073 A 
ATOM     11  C   UNL     1     -45.663  37.178  28.186  1.00  0.00     0.000 A 
ATOM     12  H   UNL     1     -44.072  37.893  29.470  1.00  0.00     0.063 H 
ATOM     13  C   UNL     1     -47.452  36.626  26.686  1.00  0.00    -0.033 A 
ATOM     14  C   UNL     1     -45.695  35.868  28.690  1.00  0.00    -0.053 A 
ATOM     15  H   UNL     1     -48.141  36.933  25.902  1.00  0.00     0.065 H 
ATOM     16  C   UNL     1     -46.606  34.941  28.189  1.00  0.00    -0.058 A 
ATOM     17  H   UNL     1     -45.016  35.565  29.485  1.00  0.00     0.063 H 
ATOM     18  H   UNL     1     -46.629  33.935  28.603  1.00  0.00     0.063 H 
BRANCH   5  19
ATOM     19  N   UNL     1     -45.766  40.989  26.556  1.00  0.00    -0.373 N 
ATOM     20  H   UNL     1     -46.641  40.960  26.032  1.00  0.00     0.161 HD
BRANCH  19  21
ATOM     21  C   UNL     1     -44.645  41.322  25.692  1.00  0.00     0.005 C 
ATOM     22  H   UNL     1     -44.043  42.097  26.177  1.00  0.00     0.045 H 
ATOM     23  H   UNL     1     -44.983  41.717  24.728  1.00  0.00     0.045 H 
ATOM     24  H   UNL     1     -43.992  40.460  25.524  1.00  0.00     0.045 H 
ENDBRANCH  19  21
ENDBRANCH   5  19
ENDBRANCH   1   4
BRANCH   1  25
ATOM     25  C   UNL     1     -47.886  33.087  25.998  1.00  0.00    -0.020 C 
ATOM     26  H   UNL     1     -46.800  33.217  25.914  1.00  0.00     0.030 H 
ATOM     27  H   UNL     1     -48.055  32.234  26.667  1.00  0.00     0.030 H 
BRANCH  25  28
ATOM     28  C   UNL     1     -48.478  32.737  24.629  1.00  0.00     0.089 C 
ATOM     29  O   UNL     1     -47.551  31.998  23.824  1.00  0.00    -0.349 OA
ATOM     30  C   UNL     1     -49.725  31.860  24.742  1.00  0.00     0.111 C 
ATOM     31  H   UNL     1     -48.714  33.670  24.100  1.00  0.00     0.063 H 
ATOM     32  C   UNL     1     -48.294  31.012  23.057  1.00  0.00     0.164 C 
ATOM     33  C   UNL     1     -49.780  31.243  23.354  1.00  0.00     0.128 C 
ATOM     34  H   UNL     1     -49.599  31.074  25.495  1.00  0.00     0.066 H 
ATOM     35  H   UNL     1     -48.044  31.159  22.001  1.00  0.00     0.088 H 
ATOM     36  H   UNL     1     -50.405  30.347  23.314  1.00  0.00     0.068 H 
BRANCH  30  37
ATOM     37  O   UNL     1     -50.913  32.595  25.019  1.00  0.00    -0.388 OA
ATOM     38  H   UNL     1     -51.254  32.287  25.879  1.00  0.00     0.211 HD
ENDBRANCH  30  37
BRANCH  32  39
ATOM     39  N   UNL     1     -47.838  29.675  23.433  1.00  0.00    -0.303 N 
ATOM     40  C   UNL     1     -48.524  28.735  24.159  1.00  0.00     0.013 A 
ATOM     41  C   UNL     1     -46.610  29.171  23.087  1.00  0.00     0.147 A 
ATOM     42  C   UNL     1     -47.734  27.604  24.294  1.00  0.00    -0.014 A 
ATOM     43  H   UNL     1     -49.513  28.949  24.545  1.00  0.00     0.082 H 
ATOM     44  C   UNL     1     -46.509  27.879  23.589  1.00  0.00     0.065 A 
ATOM     45  N   UNL     1     -45.685  29.830  22.370  1.00  0.00    -0.218 NA
ATOM     46  C   UNL     1     -45.309  27.202  23.307  1.00  0.00     0.136 A 
ATOM     47  C   UNL     1     -44.583  29.089  22.182  1.00  0.00     0.120 A 
ATOM     48  N   UNL     1     -44.352  27.831  22.595  1.00  0.00    -0.219 NA
ATOM     49  H   UNL     1     -43.782  29.560  21.622  1.00  0.00     0.106 H 
BRANCH  42  50
ATOM     50  C   UNL     1     -48.083  26.347  25.033  1.00  0.00    -0.014 C 
ATOM     51  C   UNL     1     -47.344  26.123  26.352  1.00  0.00    -0.046 C 
ATOM     52  C   UNL     1     -49.552  26.284  25.461  1.00  0.00    -0.046 C 
ATOM     53  H   UNL     1     -47.863  25.485  24.389  1.00  0.00     0.035 H 
ATOM     54  C   UNL     1     -48.148  25.009  27.005  1.00  0.00    -0.053 C 
ATOM     55  H   UNL     1     -46.297  25.845  26.203  1.00  0.00     0.027 H 
ATOM     56  H   UNL     1     -47.373  27.012  26.992  1.00  0.00     0.027 H 
ATOM     57  C   UNL     1     -49.599  25.301  26.632  1.00  0.00    -0.053 C 
ATOM     58  H   UNL     1     -49.911  27.266  25.794  1.00  0.00     0.027 H 
ATOM     59  H   UNL     1     -50.205  25.967  24.641  1.00  0.00     0.027 H 
ATOM     60  H   UNL     1     -47.847  24.039  26.591  1.00  0.00     0.027 H 
ATOM     61  H   UNL     1     -48.001  24.969  28.088  1.00  0.00     0.027 H 
ATOM     62  H   UNL     1     -50.121  24.378  26.358  1.00  0.00     0.027 H 
ATOM     63  H   UNL     1     -50.137  25.745  27.476  1.00  0.00     0.027 H 
ENDBRANCH  42  50
BRANCH  46  64
ATOM     64  N   UNL     1     -45.030  25.896  23.688  1.00  0.00    -0.383 N 
ATOM     65  H   UNL     1     -44.196  25.878  24.264  1.00  0.00     0.158 HD
ATOM     66  H   UNL     1     -45.053  25.230  22.930  1.00  0.00     0.158 HD
ENDBRANCH  46  64
ENDBRANCH  32  39
BRANCH  33  67
ATOM     67  O   UNL     1     -50.351  32.198  22.440  1.00  0.00    -0.386 OA
ATOM     68  H   UNL     1     -50.195  31.818  21.551  1.00  0.00     0.211 HD
ENDBRANCH  33  67
ENDBRANCH  25  28
ENDBRANCH   1  25
TORSDOF 10
ENDMDL
