MODEL 1
REMARK VINA RESULT:     -11.9      0.000      0.000
REMARK SMILES O=C(NCc1ccc2cc(CN3CC4(CCC4)C3)[nH]c2c1)c1cc(=O)n2ccccc2n1
REMARK SMILES IDX 5 1 6 2 7 3 8 4 9 5 10 6 19 7 20 8 21 9 4 15 3 18 1 19 2 20
REMARK SMILES IDX 22 22 23 23 32 24 24 25 31 27 25 28 26 29 30 30 27 31 29 32
REMARK SMILES IDX 28 34 11 38 12 41 13 42 18 43 14 44 15 49 17 50 16 51
REMARK H PARENT 6 10 7 11 9 12 19 13 21 14 4 16 4 17 3 21 23 26 30 33 27 35
REMARK H PARENT 29 36 28 37 11 39 11 40 13 45 13 46 18 47 18 48 15 52 15 53
REMARK H PARENT 17 54 17 55 16 56 16 57
REMARK Flexibility Score: inf
ROOT
ATOM      1  C   UNL     1     -48.271  34.702  26.557  1.00  0.00    -0.027 A 
ATOM      2  C   UNL     1     -46.983  34.839  26.019  1.00  0.00    -0.057 A 
ATOM      3  C   UNL     1     -46.396  33.812  25.270  1.00  0.00    -0.052 A 
ATOM      4  C   UNL     1     -47.115  32.623  25.049  1.00  0.00    -0.000 A 
ATOM      5  C   UNL     1     -46.837  31.413  24.354  1.00  0.00    -0.032 A 
ATOM      6  C   UNL     1     -47.939  30.589  24.475  1.00  0.00     0.030 A 
ATOM      7  N   UNL     1     -48.870  31.266  25.225  1.00  0.00    -0.357 N 
ATOM      8  C   UNL     1     -48.397  32.505  25.585  1.00  0.00     0.046 A 
ATOM      9  C   UNL     1     -49.002  33.523  26.334  1.00  0.00    -0.033 A 
ATOM     10  H   UNL     1     -46.425  35.761  26.178  1.00  0.00     0.063 H 
ATOM     11  H   UNL     1     -45.398  33.937  24.862  1.00  0.00     0.063 H 
ATOM     12  H   UNL     1     -45.925  31.176  23.823  1.00  0.00     0.065 H 
ATOM     13  H   UNL     1     -49.786  30.898  25.447  1.00  0.00     0.166 HD
ATOM     14  H   UNL     1     -50.005  33.399  26.730  1.00  0.00     0.065 H 
ENDROOT
BRANCH   1  15
ATOM     15  C   UNL     1     -48.882  35.839  27.337  1.00  0.00     0.043 C 
ATOM     16  H   UNL     1     -49.708  36.287  26.773  1.00  0.00     0.054 H 
ATOM     17  H   UNL     1     -49.298  35.469  28.281  1.00  0.00     0.054 H 
BRANCH  15  18
ATOM     18  N   UNL     1     -47.912  36.875  27.576  1.00  0.00    -0.347 N 
ATOM     19  O   UNL     1     -47.120  36.063  29.578  1.00  0.00    -0.268 OA
ATOM     20  C   UNL     1     -47.056  36.860  28.649  1.00  0.00     0.270 C 
ATOM     21  H   UNL     1     -47.674  37.515  26.826  1.00  0.00     0.164 HD
BRANCH  20  22
ATOM     22  C   UNL     1     -46.001  37.936  28.558  1.00  0.00     0.136 A 
ATOM     23  C   UNL     1     -45.140  38.012  29.575  1.00  0.00     0.035 A 
ATOM     24  N   UNL     1     -45.984  38.755  27.451  1.00  0.00    -0.225 NA
ATOM     25  C   UNL     1     -44.093  39.040  29.524  1.00  0.00     0.258 A 
ATOM     26  H   UNL     1     -45.162  37.360  30.438  1.00  0.00     0.071 H 
ATOM     27  C   UNL     1     -45.055  39.659  27.409  1.00  0.00     0.140 A 
ATOM     28  O   UNL     1     -43.297  39.119  30.459  1.00  0.00    -0.269 OA
ATOM     29  N   UNL     1     -44.095  39.848  28.398  1.00  0.00    -0.268 N 
ATOM     30  C   UNL     1     -44.994  40.567  26.228  1.00  0.00    -0.019 A 
ATOM     31  C   UNL     1     -43.131  40.845  28.277  1.00  0.00     0.014 A 
ATOM     32  C   UNL     1     -44.047  41.510  26.156  1.00  0.00    -0.057 A 
ATOM     33  H   UNL     1     -45.736  40.426  25.452  1.00  0.00     0.066 H 
ATOM     34  C   UNL     1     -43.084  41.656  27.214  1.00  0.00    -0.045 A 
ATOM     35  H   UNL     1     -42.412  40.936  29.088  1.00  0.00     0.082 H 
ATOM     36  H   UNL     1     -43.987  42.179  25.305  1.00  0.00     0.062 H 
ATOM     37  H   UNL     1     -42.327  42.429  27.130  1.00  0.00     0.064 H 
ENDBRANCH  20  22
ENDBRANCH  15  18
ENDBRANCH   1  15
BRANCH   6  38
ATOM     38  C   UNL     1     -48.196  29.211  23.960  1.00  0.00     0.039 C 
ATOM     39  H   UNL     1     -48.574  29.260  22.931  1.00  0.00     0.050 H 
ATOM     40  H   UNL     1     -47.229  28.691  23.919  1.00  0.00     0.050 H 
BRANCH  38  41
ATOM     41  N   UNL     1     -49.096  28.471  24.860  1.00  0.00    -0.296 NA
ATOM     42  C   UNL     1     -49.055  27.011  24.557  1.00  0.00     0.005 C 
ATOM     43  C   UNL     1     -48.422  28.238  26.167  1.00  0.00     0.005 C 
ATOM     44  C   UNL     1     -48.178  26.815  25.764  1.00  0.00    -0.004 C 
ATOM     45  H   UNL     1     -50.043  26.544  24.631  1.00  0.00     0.044 H 
ATOM     46  H   UNL     1     -48.624  26.720  23.592  1.00  0.00     0.044 H 
ATOM     47  H   UNL     1     -49.105  28.356  27.016  1.00  0.00     0.044 H 
ATOM     48  H   UNL     1     -47.531  28.844  26.370  1.00  0.00     0.044 H 
ATOM     49  C   UNL     1     -46.764  26.317  25.566  1.00  0.00    -0.045 C 
ATOM     50  C   UNL     1     -48.477  25.688  26.720  1.00  0.00    -0.045 C 
ATOM     51  C   UNL     1     -47.275  24.946  26.079  1.00  0.00    -0.052 C 
ATOM     52  H   UNL     1     -46.372  26.316  24.545  1.00  0.00     0.027 H 
ATOM     53  H   UNL     1     -46.025  26.778  26.230  1.00  0.00     0.027 H 
ATOM     54  H   UNL     1     -48.318  25.937  27.775  1.00  0.00     0.027 H 
ATOM     55  H   UNL     1     -49.444  25.189  26.615  1.00  0.00     0.027 H 
ATOM     56  H   UNL     1     -47.564  24.257  25.276  1.00  0.00     0.027 H 
ATOM     57  H   UNL     1     -46.614  24.424  26.776  1.00  0.00     0.027 H 
ENDBRANCH  38  41
ENDBRANCH   6  38
TORSDOF 5
ENDMDL
MODEL 2
REMARK VINA RESULT:     -11.3      1.451      2.210
REMARK SMILES O=C(NCc1ccc2cc(CN3CC4(CCC4)C3)[nH]c2c1)c1cc(=O)n2ccccc2n1
REMARK SMILES IDX 5 1 6 2 7 3 8 4 9 5 10 6 19 7 20 8 21 9 4 15 3 18 1 19 2 20
REMARK SMILES IDX 22 22 23 23 32 24 24 25 31 27 25 28 26 29 30 30 27 31 29 32
REMARK SMILES IDX 28 34 11 38 12 41 13 42 18 43 14 44 15 49 17 50 16 51
REMARK H PARENT 6 10 7 11 9 12 19 13 21 14 4 16 4 17 3 21 23 26 30 33 27 35
REMARK H PARENT 29 36 28 37 11 39 11 40 13 45 13 46 18 47 18 48 15 52 15 53
REMARK H PARENT 17 54 17 55 16 56 16 57
REMARK Flexibility Score: inf
ROOT
ATOM      1  C   UNL     1     -47.905  35.139  27.020  1.00  0.00    -0.027 A 
ATOM      2  C   UNL     1     -46.569  35.063  26.600  1.00  0.00    -0.057 A 
ATOM      3  C   UNL     1     -46.126  34.022  25.775  1.00  0.00    -0.052 A 
ATOM      4  C   UNL     1     -47.041  33.038  25.357  1.00  0.00    -0.000 A 
ATOM      5  C   UNL     1     -46.941  31.877  24.540  1.00  0.00    -0.032 A 
ATOM      6  C   UNL     1     -48.189  31.290  24.476  1.00  0.00     0.030 A 
ATOM      7  N   UNL     1     -49.037  32.062  25.234  1.00  0.00    -0.357 N 
ATOM      8  C   UNL     1     -48.366  33.131  25.778  1.00  0.00     0.046 A 
ATOM      9  C   UNL     1     -48.829  34.167  26.600  1.00  0.00    -0.033 A 
ATOM     10  H   UNL     1     -45.858  35.826  26.912  1.00  0.00     0.063 H 
ATOM     11  H   UNL     1     -45.088  33.980  25.461  1.00  0.00     0.063 H 
ATOM     12  H   UNL     1     -46.046  31.513  24.052  1.00  0.00     0.065 H 
ATOM     13  H   UNL     1     -50.025  31.870  25.340  1.00  0.00     0.166 HD
ATOM     14  H   UNL     1     -49.870  34.212  26.903  1.00  0.00     0.065 H 
ENDROOT
BRANCH   1  15
ATOM     15  C   UNL     1     -48.353  36.289  27.888  1.00  0.00     0.043 C 
ATOM     16  H   UNL     1     -49.309  36.687  27.528  1.00  0.00     0.054 H 
ATOM     17  H   UNL     1     -48.513  35.946  28.917  1.00  0.00     0.054 H 
BRANCH  15  18
ATOM     18  N   UNL     1     -47.396  37.363  27.848  1.00  0.00    -0.347 N 
ATOM     19  O   UNL     1     -46.455  36.978  29.913  1.00  0.00    -0.268 OA
ATOM     20  C   UNL     1     -46.472  37.573  28.841  1.00  0.00     0.270 C 
ATOM     21  H   UNL     1     -47.223  37.841  26.970  1.00  0.00     0.164 HD
BRANCH  20  22
ATOM     22  C   UNL     1     -45.453  38.622  28.464  1.00  0.00     0.136 A 
ATOM     23  C   UNL     1     -45.600  39.191  27.266  1.00  0.00     0.035 A 
ATOM     24  N   UNL     1     -44.455  38.929  29.363  1.00  0.00    -0.225 NA
ATOM     25  C   UNL     1     -44.635  40.220  26.862  1.00  0.00     0.258 A 
ATOM     26  H   UNL     1     -46.391  38.943  26.570  1.00  0.00     0.071 H 
ATOM     27  C   UNL     1     -43.607  39.842  29.002  1.00  0.00     0.140 A 
ATOM     28  O   UNL     1     -44.761  40.747  25.757  1.00  0.00    -0.269 OA
ATOM     29  N   UNL     1     -43.644  40.514  27.785  1.00  0.00    -0.268 N 
ATOM     30  C   UNL     1     -42.512  40.211  29.944  1.00  0.00    -0.019 A 
ATOM     31  C   UNL     1     -42.693  41.482  27.474  1.00  0.00     0.014 A 
ATOM     32  C   UNL     1     -41.621  41.150  29.600  1.00  0.00    -0.057 A 
ATOM     33  H   UNL     1     -42.477  39.695  30.895  1.00  0.00     0.066 H 
ATOM     34  C   UNL     1     -41.713  41.807  28.325  1.00  0.00    -0.045 A 
ATOM     35  H   UNL     1     -42.782  41.967  26.505  1.00  0.00     0.082 H 
ATOM     36  H   UNL     1     -40.818  41.432  30.272  1.00  0.00     0.062 H 
ATOM     37  H   UNL     1     -40.977  42.564  28.071  1.00  0.00     0.064 H 
ENDBRANCH  20  22
ENDBRANCH  15  18
ENDBRANCH   1  15
BRANCH   6  38
ATOM     38  C   UNL     1     -48.662  30.058  23.778  1.00  0.00     0.039 C 
ATOM     39  H   UNL     1     -49.757  30.000  23.820  1.00  0.00     0.050 H 
ATOM     40  H   UNL     1     -48.388  30.157  22.718  1.00  0.00     0.050 H 
BRANCH  38  41
ATOM     41  N   UNL     1     -48.009  28.857  24.327  1.00  0.00    -0.296 NA
ATOM     42  C   UNL     1     -48.624  28.478  25.631  1.00  0.00     0.005 C 
ATOM     43  C   UNL     1     -48.573  27.639  23.685  1.00  0.00     0.005 C 
ATOM     44  C   UNL     1     -49.373  27.380  24.926  1.00  0.00    -0.004 C 
ATOM     45  H   UNL     1     -47.879  28.130  26.356  1.00  0.00     0.044 H 
ATOM     46  H   UNL     1     -49.235  29.241  26.128  1.00  0.00     0.044 H 
ATOM     47  H   UNL     1     -47.807  26.884  23.476  1.00  0.00     0.044 H 
ATOM     48  H   UNL     1     -49.146  27.795  22.763  1.00  0.00     0.044 H 
ATOM     49  C   UNL     1     -50.882  27.439  24.879  1.00  0.00    -0.045 C 
ATOM     50  C   UNL     1     -49.412  26.002  25.537  1.00  0.00    -0.045 C 
ATOM     51  C   UNL     1     -50.866  26.331  25.964  1.00  0.00    -0.052 C 
ATOM     52  H   UNL     1     -51.356  28.378  25.179  1.00  0.00     0.027 H 
ATOM     53  H   UNL     1     -51.319  27.108  23.930  1.00  0.00     0.027 H 
ATOM     54  H   UNL     1     -49.350  25.185  24.810  1.00  0.00     0.027 H 
ATOM     55  H   UNL     1     -48.718  25.800  26.357  1.00  0.00     0.027 H 
ATOM     56  H   UNL     1     -50.945  26.718  26.987  1.00  0.00     0.027 H 
ATOM     57  H   UNL     1     -51.593  25.526  25.830  1.00  0.00     0.027 H 
ENDBRANCH  38  41
ENDBRANCH   6  38
TORSDOF 5
ENDMDL
MODEL 3
REMARK VINA RESULT:     -10.8      2.128      3.501
REMARK SMILES O=C(NCc1ccc2cc(CN3CC4(CCC4)C3)[nH]c2c1)c1cc(=O)n2ccccc2n1
REMARK SMILES IDX 5 1 6 2 7 3 8 4 9 5 10 6 19 7 20 8 21 9 4 15 3 18 1 19 2 20
REMARK SMILES IDX 22 22 23 23 32 24 24 25 31 27 25 28 26 29 30 30 27 31 29 32
REMARK SMILES IDX 28 34 11 38 12 41 13 42 18 43 14 44 15 49 17 50 16 51
REMARK H PARENT 6 10 7 11 9 12 19 13 21 14 4 16 4 17 3 21 23 26 30 33 27 35
REMARK H PARENT 29 36 28 37 11 39 11 40 13 45 13 46 18 47 18 48 15 52 15 53
REMARK H PARENT 17 54 17 55 16 56 16 57
REMARK Flexibility Score: inf
ROOT
ATOM      1  C   UNL     1     -48.105  35.342  26.851  1.00  0.00    -0.027 A 
ATOM      2  C   UNL     1     -46.819  35.348  26.293  1.00  0.00    -0.057 A 
ATOM      3  C   UNL     1     -46.360  34.276  25.517  1.00  0.00    -0.052 A 
ATOM      4  C   UNL     1     -47.208  33.177  25.291  1.00  0.00    -0.000 A 
ATOM      5  C   UNL     1     -47.075  31.956  24.573  1.00  0.00    -0.032 A 
ATOM      6  C   UNL     1     -48.258  31.254  24.700  1.00  0.00     0.030 A 
ATOM      7  N   UNL     1     -49.097  32.015  25.478  1.00  0.00    -0.357 N 
ATOM      8  C   UNL     1     -48.486  33.189  25.848  1.00  0.00     0.046 A 
ATOM      9  C   UNL     1     -48.965  34.254  26.623  1.00  0.00    -0.033 A 
ATOM     10  H   UNL     1     -46.161  36.200  26.456  1.00  0.00     0.063 H 
ATOM     11  H   UNL     1     -45.361  34.299  25.094  1.00  0.00     0.063 H 
ATOM     12  H   UNL     1     -46.203  31.630  24.022  1.00  0.00     0.065 H 
ATOM     13  H   UNL     1     -50.044  31.745  25.709  1.00  0.00     0.166 HD
ATOM     14  H   UNL     1     -49.968  34.233  27.036  1.00  0.00     0.065 H 
ENDROOT
BRANCH   1  15
ATOM     15  C   UNL     1     -48.577  36.525  27.660  1.00  0.00     0.043 C 
ATOM     16  H   UNL     1     -49.478  36.959  27.211  1.00  0.00     0.054 H 
ATOM     17  H   UNL     1     -48.842  36.208  28.675  1.00  0.00     0.054 H 
BRANCH  15  18
ATOM     18  N   UNL     1     -47.572  37.556  27.692  1.00  0.00    -0.347 N 
ATOM     19  O   UNL     1     -46.574  36.916  29.663  1.00  0.00    -0.268 OA
ATOM     20  C   UNL     1     -46.603  37.621  28.661  1.00  0.00     0.270 C 
ATOM     21  H   UNL     1     -47.410  38.116  26.861  1.00  0.00     0.164 HD
BRANCH  20  22
ATOM     22  C   UNL     1     -45.550  38.659  28.352  1.00  0.00     0.136 A 
ATOM     23  C   UNL     1     -45.664  39.290  27.181  1.00  0.00     0.035 A 
ATOM     24  N   UNL     1     -44.560  38.894  29.279  1.00  0.00    -0.225 NA
ATOM     25  C   UNL     1     -44.666  40.312  26.843  1.00  0.00     0.258 A 
ATOM     26  H   UNL     1     -46.449  39.098  26.462  1.00  0.00     0.071 H 
ATOM     27  C   UNL     1     -43.682  39.801  28.977  1.00  0.00     0.140 A 
ATOM     28  O   UNL     1     -44.760  40.896  25.764  1.00  0.00    -0.269 OA
ATOM     29  N   UNL     1     -43.682  40.533  27.794  1.00  0.00    -0.268 N 
ATOM     30  C   UNL     1     -42.593  40.093  29.952  1.00  0.00    -0.019 A 
ATOM     31  C   UNL     1     -42.701  41.489  27.547  1.00  0.00     0.014 A 
ATOM     32  C   UNL     1     -41.673  41.023  29.669  1.00  0.00    -0.057 A 
ATOM     33  H   UNL     1     -42.587  39.530  30.877  1.00  0.00     0.066 H 
ATOM     34  C   UNL     1     -41.726  41.745  28.427  1.00  0.00    -0.045 A 
ATOM     35  H   UNL     1     -42.762  42.024  26.601  1.00  0.00     0.082 H 
ATOM     36  H   UNL     1     -40.873  41.250  30.365  1.00  0.00     0.062 H 
ATOM     37  H   UNL     1     -40.967  42.493  28.222  1.00  0.00     0.064 H 
ENDBRANCH  20  22
ENDBRANCH  15  18
ENDBRANCH   1  15
BRANCH   6  38
ATOM     38  C   UNL     1     -48.672  29.921  24.169  1.00  0.00     0.039 C 
ATOM     39  H   UNL     1     -47.815  29.424  23.697  1.00  0.00     0.050 H 
ATOM     40  H   UNL     1     -48.966  29.303  25.028  1.00  0.00     0.050 H 
BRANCH  38  41
ATOM     41  N   UNL     1     -49.824  30.050  23.260  1.00  0.00    -0.296 NA
ATOM     42  C   UNL     1     -49.714  31.298  22.451  1.00  0.00     0.005 C 
ATOM     43  C   UNL     1     -49.602  29.221  22.045  1.00  0.00     0.005 C 
ATOM     44  C   UNL     1     -49.268  30.466  21.280  1.00  0.00    -0.004 C 
ATOM     45  H   UNL     1     -50.683  31.792  22.317  1.00  0.00     0.044 H 
ATOM     46  H   UNL     1     -49.006  32.056  22.806  1.00  0.00     0.044 H 
ATOM     47  H   UNL     1     -50.516  28.717  21.710  1.00  0.00     0.044 H 
ATOM     48  H   UNL     1     -48.811  28.465  22.108  1.00  0.00     0.044 H 
ATOM     49  C   UNL     1     -47.874  30.665  20.732  1.00  0.00    -0.045 C 
ATOM     50  C   UNL     1     -49.874  30.715  19.922  1.00  0.00    -0.045 C 
ATOM     51  C   UNL     1     -48.545  31.426  19.559  1.00  0.00    -0.052 C 
ATOM     52  H   UNL     1     -47.179  31.256  21.334  1.00  0.00     0.027 H 
ATOM     53  H   UNL     1     -47.374  29.742  20.418  1.00  0.00     0.027 H 
ATOM     54  H   UNL     1     -50.053  29.807  19.335  1.00  0.00     0.027 H 
ATOM     55  H   UNL     1     -50.767  31.345  19.883  1.00  0.00     0.027 H 
ATOM     56  H   UNL     1     -48.576  32.513  19.703  1.00  0.00     0.027 H 
ATOM     57  H   UNL     1     -48.147  31.210  18.564  1.00  0.00     0.027 H 
ENDBRANCH  38  41
ENDBRANCH   6  38
TORSDOF 5
ENDMDL
MODEL 4
REMARK VINA RESULT:     -10.7      2.239      3.334
REMARK SMILES O=C(NCc1ccc2cc(CN3CC4(CCC4)C3)[nH]c2c1)c1cc(=O)n2ccccc2n1
REMARK SMILES IDX 5 1 6 2 7 3 8 4 9 5 10 6 19 7 20 8 21 9 4 15 3 18 1 19 2 20
REMARK SMILES IDX 22 22 23 23 32 24 24 25 31 27 25 28 26 29 30 30 27 31 29 32
REMARK SMILES IDX 28 34 11 38 12 41 13 42 18 43 14 44 15 49 17 50 16 51
REMARK H PARENT 6 10 7 11 9 12 19 13 21 14 4 16 4 17 3 21 23 26 30 33 27 35
REMARK H PARENT 29 36 28 37 11 39 11 40 13 45 13 46 18 47 18 48 15 52 15 53
REMARK H PARENT 17 54 17 55 16 56 16 57
REMARK Flexibility Score: inf
ROOT
ATOM      1  C   UNL     1     -46.272  35.861  28.018  1.00  0.00    -0.027 A 
ATOM      2  C   UNL     1     -47.664  35.940  27.870  1.00  0.00    -0.057 A 
ATOM      3  C   UNL     1     -48.349  35.099  26.985  1.00  0.00    -0.052 A 
ATOM      4  C   UNL     1     -47.626  34.153  26.235  1.00  0.00    -0.000 A 
ATOM      5  C   UNL     1     -47.986  33.167  25.274  1.00  0.00    -0.032 A 
ATOM      6  C   UNL     1     -46.834  32.519  24.874  1.00  0.00     0.030 A 
ATOM      7  N   UNL     1     -45.790  33.089  25.563  1.00  0.00    -0.357 N 
ATOM      8  C   UNL     1     -46.243  34.082  26.398  1.00  0.00     0.046 A 
ATOM      9  C   UNL     1     -45.541  34.913  27.281  1.00  0.00    -0.033 A 
ATOM     10  H   UNL     1     -48.230  36.664  28.454  1.00  0.00     0.063 H 
ATOM     11  H   UNL     1     -49.427  35.176  26.883  1.00  0.00     0.063 H 
ATOM     12  H   UNL     1     -48.986  32.958  24.916  1.00  0.00     0.065 H 
ATOM     13  H   UNL     1     -44.829  32.785  25.476  1.00  0.00     0.166 HD
ATOM     14  H   UNL     1     -44.464  34.825  27.388  1.00  0.00     0.065 H 
ENDROOT
BRANCH   1  15
ATOM     15  C   UNL     1     -45.569  36.765  29.000  1.00  0.00     0.043 C 
ATOM     16  H   UNL     1     -46.286  37.174  29.721  1.00  0.00     0.054 H 
ATOM     17  H   UNL     1     -44.824  36.199  29.570  1.00  0.00     0.054 H 
BRANCH  15  18
ATOM     18  N   UNL     1     -44.958  37.878  28.321  1.00  0.00    -0.347 N 
ATOM     19  O   UNL     1     -46.718  39.343  28.541  1.00  0.00    -0.268 OA
ATOM     20  C   UNL     1     -45.562  39.106  28.213  1.00  0.00     0.270 C 
ATOM     21  H   UNL     1     -43.964  37.851  28.120  1.00  0.00     0.164 HD
BRANCH  20  22
ATOM     22  C   UNL     1     -44.633  40.155  27.649  1.00  0.00     0.136 A 
ATOM     23  C   UNL     1     -43.558  40.453  28.382  1.00  0.00     0.035 A 
ATOM     24  N   UNL     1     -44.938  40.726  26.434  1.00  0.00    -0.225 NA
ATOM     25  C   UNL     1     -42.625  41.463  27.869  1.00  0.00     0.258 A 
ATOM     26  H   UNL     1     -43.328  39.994  29.335  1.00  0.00     0.071 H 
ATOM     27  C   UNL     1     -44.108  41.615  25.983  1.00  0.00     0.140 A 
ATOM     28  O   UNL     1     -41.633  41.746  28.541  1.00  0.00    -0.269 OA
ATOM     29  N   UNL     1     -42.952  42.020  26.643  1.00  0.00    -0.268 N 
ATOM     30  C   UNL     1     -44.395  42.259  24.669  1.00  0.00    -0.019 A 
ATOM     31  C   UNL     1     -42.113  42.983  26.090  1.00  0.00     0.014 A 
ATOM     32  C   UNL     1     -43.557  43.180  24.178  1.00  0.00    -0.057 A 
ATOM     33  H   UNL     1     -45.292  41.949  24.147  1.00  0.00     0.066 H 
ATOM     34  C   UNL     1     -42.378  43.556  24.910  1.00  0.00    -0.045 A 
ATOM     35  H   UNL     1     -41.227  43.251  26.660  1.00  0.00     0.082 H 
ATOM     36  H   UNL     1     -43.749  43.659  23.224  1.00  0.00     0.062 H 
ATOM     37  H   UNL     1     -41.716  44.306  24.489  1.00  0.00     0.064 H 
ENDBRANCH  20  22
ENDBRANCH  15  18
ENDBRANCH   1  15
BRANCH   6  38
ATOM     38  C   UNL     1     -46.617  31.418  23.889  1.00  0.00     0.039 C 
ATOM     39  H   UNL     1     -46.956  31.734  22.894  1.00  0.00     0.050 H 
ATOM     40  H   UNL     1     -45.534  31.250  23.819  1.00  0.00     0.050 H 
BRANCH  38  41
ATOM     41  N   UNL     1     -47.263  30.173  24.339  1.00  0.00    -0.296 NA
ATOM     42  C   UNL     1     -48.677  30.117  23.867  1.00  0.00     0.005 C 
ATOM     43  C   UNL     1     -46.894  29.056  23.428  1.00  0.00     0.005 C 
ATOM     44  C   UNL     1     -48.250  29.152  22.794  1.00  0.00    -0.004 C 
ATOM     45  H   UNL     1     -49.349  29.693  24.620  1.00  0.00     0.044 H 
ATOM     46  H   UNL     1     -49.119  31.059  23.523  1.00  0.00     0.044 H 
ATOM     47  H   UNL     1     -46.714  28.119  23.967  1.00  0.00     0.044 H 
ATOM     48  H   UNL     1     -46.037  29.229  22.767  1.00  0.00     0.044 H 
ATOM     49  C   UNL     1     -48.379  29.565  21.346  1.00  0.00    -0.045 C 
ATOM     50  C   UNL     1     -49.068  27.910  22.548  1.00  0.00    -0.045 C 
ATOM     51  C   UNL     1     -49.614  28.628  21.287  1.00  0.00    -0.052 C 
ATOM     52  H   UNL     1     -48.584  30.620  21.143  1.00  0.00     0.027 H 
ATOM     53  H   UNL     1     -47.555  29.234  20.705  1.00  0.00     0.027 H 
ATOM     54  H   UNL     1     -48.476  27.018  22.316  1.00  0.00     0.027 H 
ATOM     55  H   UNL     1     -49.818  27.651  23.300  1.00  0.00     0.027 H 
ATOM     56  H   UNL     1     -50.565  29.146  21.456  1.00  0.00     0.027 H 
ATOM     57  H   UNL     1     -49.698  28.011  20.389  1.00  0.00     0.027 H 
ENDBRANCH  38  41
ENDBRANCH   6  38
TORSDOF 5
ENDMDL
MODEL 5
REMARK VINA RESULT:     -10.6      2.415      4.653
REMARK SMILES O=C(NCc1ccc2cc(CN3CC4(CCC4)C3)[nH]c2c1)c1cc(=O)n2ccccc2n1
REMARK SMILES IDX 5 1 6 2 7 3 8 4 9 5 10 6 19 7 20 8 21 9 4 15 3 18 1 19 2 20
REMARK SMILES IDX 22 22 23 23 32 24 24 25 31 27 25 28 26 29 30 30 27 31 29 32
REMARK SMILES IDX 28 34 11 38 12 41 13 42 18 43 14 44 15 49 17 50 16 51
REMARK H PARENT 6 10 7 11 9 12 19 13 21 14 4 16 4 17 3 21 23 26 30 33 27 35
REMARK H PARENT 29 36 28 37 11 39 11 40 13 45 13 46 18 47 18 48 15 52 15 53
REMARK H PARENT 17 54 17 55 16 56 16 57
REMARK Flexibility Score: inf
ROOT
ATOM      1  C   UNL     1     -45.670  37.618  28.376  1.00  0.00    -0.027 A 
ATOM      2  C   UNL     1     -46.972  37.994  28.019  1.00  0.00    -0.057 A 
ATOM      3  C   UNL     1     -47.833  37.102  27.367  1.00  0.00    -0.052 A 
ATOM      4  C   UNL     1     -47.381  35.803  27.070  1.00  0.00    -0.000 A 
ATOM      5  C   UNL     1     -47.970  34.672  26.439  1.00  0.00    -0.032 A 
ATOM      6  C   UNL     1     -47.037  33.653  26.433  1.00  0.00     0.030 A 
ATOM      7  N   UNL     1     -45.903  34.140  27.038  1.00  0.00    -0.357 N 
ATOM      8  C   UNL     1     -46.086  35.443  27.437  1.00  0.00     0.046 A 
ATOM      9  C   UNL     1     -45.212  36.319  28.093  1.00  0.00    -0.033 A 
ATOM     10  H   UNL     1     -47.331  38.995  28.254  1.00  0.00     0.063 H 
ATOM     11  H   UNL     1     -48.837  37.413  27.098  1.00  0.00     0.063 H 
ATOM     12  H   UNL     1     -48.971  34.614  26.033  1.00  0.00     0.065 H 
ATOM     13  H   UNL     1     -45.068  33.589  27.188  1.00  0.00     0.166 HD
ATOM     14  H   UNL     1     -44.212  36.002  28.370  1.00  0.00     0.065 H 
ENDROOT
BRANCH   1  15
ATOM     15  C   UNL     1     -44.778  38.596  29.100  1.00  0.00     0.043 C 
ATOM     16  H   UNL     1     -45.225  38.880  30.059  1.00  0.00     0.054 H 
ATOM     17  H   UNL     1     -43.808  38.134  29.319  1.00  0.00     0.054 H 
BRANCH  15  18
ATOM     18  N   UNL     1     -44.609  39.801  28.330  1.00  0.00    -0.347 N 
ATOM     19  O   UNL     1     -42.636  40.480  29.298  1.00  0.00    -0.268 OA
ATOM     20  C   UNL     1     -43.506  40.609  28.445  1.00  0.00     0.270 C 
ATOM     21  H   UNL     1     -45.188  39.950  27.510  1.00  0.00     0.164 HD
BRANCH  20  22
ATOM     22  C   UNL     1     -43.469  41.684  27.385  1.00  0.00     0.136 A 
ATOM     23  C   UNL     1     -42.270  41.971  26.873  1.00  0.00     0.035 A 
ATOM     24  N   UNL     1     -44.649  42.287  27.011  1.00  0.00    -0.225 NA
ATOM     25  C   UNL     1     -42.188  43.005  25.834  1.00  0.00     0.258 A 
ATOM     26  H   UNL     1     -41.350  41.487  27.173  1.00  0.00     0.071 H 
ATOM     27  C   UNL     1     -44.571  43.197  26.090  1.00  0.00     0.140 A 
ATOM     28  O   UNL     1     -41.086  43.280  25.359  1.00  0.00    -0.269 OA
ATOM     29  N   UNL     1     -43.389  43.595  25.472  1.00  0.00    -0.268 N 
ATOM     30  C   UNL     1     -45.824  43.876  25.649  1.00  0.00    -0.019 A 
ATOM     31  C   UNL     1     -43.393  44.582  24.492  1.00  0.00     0.014 A 
ATOM     32  C   UNL     1     -45.775  44.820  24.702  1.00  0.00    -0.057 A 
ATOM     33  H   UNL     1     -46.749  43.572  26.123  1.00  0.00     0.066 H 
ATOM     34  C   UNL     1     -44.521  45.187  24.103  1.00  0.00    -0.045 A 
ATOM     35  H   UNL     1     -42.433  44.843  24.052  1.00  0.00     0.082 H 
ATOM     36  H   UNL     1     -46.676  45.324  24.368  1.00  0.00     0.062 H 
ATOM     37  H   UNL     1     -44.511  45.956  23.336  1.00  0.00     0.064 H 
ENDBRANCH  20  22
ENDBRANCH  15  18
ENDBRANCH   1  15
BRANCH   6  38
ATOM     38  C   UNL     1     -47.105  32.261  25.896  1.00  0.00     0.039 C 
ATOM     39  H   UNL     1     -46.191  31.714  26.159  1.00  0.00     0.050 H 
ATOM     40  H   UNL     1     -47.937  31.755  26.404  1.00  0.00     0.050 H 
BRANCH  38  41
ATOM     41  N   UNL     1     -47.367  32.267  24.447  1.00  0.00    -0.296 NA
ATOM     42  C   UNL     1     -46.673  31.124  23.786  1.00  0.00     0.005 C 
ATOM     43  C   UNL     1     -48.691  31.646  24.171  1.00  0.00     0.005 C 
ATOM     44  C   UNL     1     -47.990  30.402  23.715  1.00  0.00    -0.004 C 
ATOM     45  H   UNL     1     -46.252  31.402  22.813  1.00  0.00     0.044 H 
ATOM     46  H   UNL     1     -45.879  30.631  24.359  1.00  0.00     0.044 H 
ATOM     47  H   UNL     1     -49.241  32.170  23.381  1.00  0.00     0.044 H 
ATOM     48  H   UNL     1     -49.365  31.536  25.029  1.00  0.00     0.044 H 
ATOM     49  C   UNL     1     -48.159  29.113  24.487  1.00  0.00    -0.045 C 
ATOM     50  C   UNL     1     -48.394  29.724  22.430  1.00  0.00    -0.045 C 
ATOM     51  C   UNL     1     -48.022  28.388  23.123  1.00  0.00    -0.052 C 
ATOM     52  H   UNL     1     -47.390  28.868  25.225  1.00  0.00     0.027 H 
ATOM     53  H   UNL     1     -49.146  28.987  24.947  1.00  0.00     0.027 H 
ATOM     54  H   UNL     1     -49.461  29.806  22.193  1.00  0.00     0.027 H 
ATOM     55  H   UNL     1     -47.813  29.965  21.536  1.00  0.00     0.027 H 
ATOM     56  H   UNL     1     -47.001  28.052  22.906  1.00  0.00     0.027 H 
ATOM     57  H   UNL     1     -48.714  27.559  22.956  1.00  0.00     0.027 H 
ENDBRANCH  38  41
ENDBRANCH   6  38
TORSDOF 5
ENDMDL
MODEL 6
REMARK VINA RESULT:     -10.3      2.445      2.993
REMARK SMILES O=C(NCc1ccc2cc(CN3CC4(CCC4)C3)[nH]c2c1)c1cc(=O)n2ccccc2n1
REMARK SMILES IDX 5 1 6 2 7 3 8 4 9 5 10 6 19 7 20 8 21 9 4 15 3 18 1 19 2 20
REMARK SMILES IDX 22 22 23 23 32 24 24 25 31 27 25 28 26 29 30 30 27 31 29 32
REMARK SMILES IDX 28 34 11 38 12 41 13 42 18 43 14 44 15 49 17 50 16 51
REMARK H PARENT 6 10 7 11 9 12 19 13 21 14 4 16 4 17 3 21 23 26 30 33 27 35
REMARK H PARENT 29 36 28 37 11 39 11 40 13 45 13 46 18 47 18 48 15 52 15 53
REMARK H PARENT 17 54 17 55 16 56 16 57
REMARK Flexibility Score: inf
ROOT
ATOM      1  C   UNL     1     -47.580  35.428  27.467  1.00  0.00    -0.027 A 
ATOM      2  C   UNL     1     -46.243  35.300  27.065  1.00  0.00    -0.057 A 
ATOM      3  C   UNL     1     -45.853  34.321  26.143  1.00  0.00    -0.052 A 
ATOM      4  C   UNL     1     -46.823  33.454  25.607  1.00  0.00    -0.000 A 
ATOM      5  C   UNL     1     -46.783  32.380  24.675  1.00  0.00    -0.032 A 
ATOM      6  C   UNL     1     -48.068  31.894  24.528  1.00  0.00     0.030 A 
ATOM      7  N   UNL     1     -48.879  32.642  25.348  1.00  0.00    -0.357 N 
ATOM      8  C   UNL     1     -48.149  33.598  26.013  1.00  0.00     0.046 A 
ATOM      9  C   UNL     1     -48.559  34.574  26.931  1.00  0.00    -0.033 A 
ATOM     10  H   UNL     1     -45.489  35.974  27.469  1.00  0.00     0.063 H 
ATOM     11  H   UNL     1     -44.813  34.237  25.844  1.00  0.00     0.063 H 
ATOM     12  H   UNL     1     -45.904  32.006  24.168  1.00  0.00     0.065 H 
ATOM     13  H   UNL     1     -49.879  32.512  25.415  1.00  0.00     0.166 HD
ATOM     14  H   UNL     1     -49.602  34.662  27.219  1.00  0.00     0.065 H 
ENDROOT
BRANCH   1  15
ATOM     15  C   UNL     1     -47.969  36.511  28.443  1.00  0.00     0.043 C 
ATOM     16  H   UNL     1     -48.936  36.946  28.164  1.00  0.00     0.054 H 
ATOM     17  H   UNL     1     -48.082  36.091  29.449  1.00  0.00     0.054 H 
BRANCH  15  18
ATOM     18  N   UNL     1     -47.000  37.576  28.438  1.00  0.00    -0.347 N 
ATOM     19  O   UNL     1     -45.945  37.004  30.402  1.00  0.00    -0.268 OA
ATOM     20  C   UNL     1     -46.017  37.690  29.388  1.00  0.00     0.270 C 
ATOM     21  H   UNL     1     -46.873  38.127  27.596  1.00  0.00     0.164 HD
BRANCH  20  22
ATOM     22  C   UNL     1     -45.006  38.758  29.043  1.00  0.00     0.136 A 
ATOM     23  C   UNL     1     -44.011  38.938  29.914  1.00  0.00     0.035 A 
ATOM     24  N   UNL     1     -45.162  39.463  27.870  1.00  0.00    -0.225 NA
ATOM     25  C   UNL     1     -43.002  39.962  29.614  1.00  0.00     0.258 A 
ATOM     26  H   UNL     1     -43.898  38.375  30.831  1.00  0.00     0.071 H 
ATOM     27  C   UNL     1     -44.266  40.363  27.608  1.00  0.00     0.140 A 
ATOM     28  O   UNL     1     -42.084  40.138  30.413  1.00  0.00    -0.269 OA
ATOM     29  N   UNL     1     -43.179  40.655  28.426  1.00  0.00    -0.268 N 
ATOM     30  C   UNL     1     -44.391  41.150  26.347  1.00  0.00    -0.019 A 
ATOM     31  C   UNL     1     -42.261  41.639  28.072  1.00  0.00     0.014 A 
ATOM     32  C   UNL     1     -43.482  42.086  26.050  1.00  0.00    -0.057 A 
ATOM     33  H   UNL     1     -45.232  40.928  25.703  1.00  0.00     0.066 H 
ATOM     34  C   UNL     1     -42.381  42.341  26.939  1.00  0.00    -0.045 A 
ATOM     35  H   UNL     1     -41.437  41.814  28.759  1.00  0.00     0.082 H 
ATOM     36  H   UNL     1     -43.556  42.668  25.138  1.00  0.00     0.062 H 
ATOM     37  H   UNL     1     -41.659  43.106  26.673  1.00  0.00     0.064 H 
ENDBRANCH  20  22
ENDBRANCH  15  18
ENDBRANCH   1  15
BRANCH   6  38
ATOM     38  C   UNL     1     -48.607  30.778  23.695  1.00  0.00     0.039 C 
ATOM     39  H   UNL     1     -48.021  29.866  23.867  1.00  0.00     0.050 H 
ATOM     40  H   UNL     1     -49.627  30.572  24.045  1.00  0.00     0.050 H 
BRANCH  38  41
ATOM     41  N   UNL     1     -48.660  31.158  22.274  1.00  0.00    -0.296 NA
ATOM     42  C   UNL     1     -48.060  30.090  21.423  1.00  0.00     0.005 C 
ATOM     43  C   UNL     1     -50.011  30.864  21.724  1.00  0.00     0.005 C 
ATOM     44  C   UNL     1     -49.449  29.651  21.047  1.00  0.00    -0.004 C 
ATOM     45  H   UNL     1     -47.471  30.501  20.595  1.00  0.00     0.044 H 
ATOM     46  H   UNL     1     -47.437  29.346  21.933  1.00  0.00     0.044 H 
ATOM     47  H   UNL     1     -50.361  31.643  21.036  1.00  0.00     0.044 H 
ATOM     48  H   UNL     1     -50.807  30.685  22.456  1.00  0.00     0.044 H 
ATOM     49  C   UNL     1     -49.915  28.272  21.456  1.00  0.00    -0.045 C 
ATOM     50  C   UNL     1     -49.767  29.365  19.600  1.00  0.00    -0.045 C 
ATOM     51  C   UNL     1     -49.700  27.862  19.976  1.00  0.00    -0.052 C 
ATOM     52  H   UNL     1     -49.302  27.733  22.183  1.00  0.00     0.027 H 
ATOM     53  H   UNL     1     -50.964  28.224  21.770  1.00  0.00     0.027 H 
ATOM     54  H   UNL     1     -50.766  29.689  19.287  1.00  0.00     0.027 H 
ATOM     55  H   UNL     1     -49.038  29.694  18.856  1.00  0.00     0.027 H 
ATOM     56  H   UNL     1     -48.722  27.406  19.785  1.00  0.00     0.027 H 
ATOM     57  H   UNL     1     -50.479  27.230  19.542  1.00  0.00     0.027 H 
ENDBRANCH  38  41
ENDBRANCH   6  38
TORSDOF 5
ENDMDL
MODEL 7
REMARK VINA RESULT:     -10.3      1.825      2.680
REMARK SMILES O=C(NCc1ccc2cc(CN3CC4(CCC4)C3)[nH]c2c1)c1cc(=O)n2ccccc2n1
REMARK SMILES IDX 5 1 6 2 7 3 8 4 9 5 10 6 19 7 20 8 21 9 4 15 3 18 1 19 2 20
REMARK SMILES IDX 22 22 23 23 32 24 24 25 31 27 25 28 26 29 30 30 27 31 29 32
REMARK SMILES IDX 28 34 11 38 12 41 13 42 18 43 14 44 15 49 17 50 16 51
REMARK H PARENT 6 10 7 11 9 12 19 13 21 14 4 16 4 17 3 21 23 26 30 33 27 35
REMARK H PARENT 29 36 28 37 11 39 11 40 13 45 13 46 18 47 18 48 15 52 15 53
REMARK H PARENT 17 54 17 55 16 56 16 57
REMARK Flexibility Score: inf
ROOT
ATOM      1  C   UNL     1     -46.637  34.411  27.099  1.00  0.00    -0.027 A 
ATOM      2  C   UNL     1     -47.979  34.815  27.079  1.00  0.00    -0.057 A 
ATOM      3  C   UNL     1     -48.958  34.053  26.428  1.00  0.00    -0.052 A 
ATOM      4  C   UNL     1     -48.585  32.857  25.787  1.00  0.00    -0.000 A 
ATOM      5  C   UNL     1     -49.295  31.865  25.054  1.00  0.00    -0.032 A 
ATOM      6  C   UNL     1     -48.391  30.897  24.660  1.00  0.00     0.030 A 
ATOM      7  N   UNL     1     -47.158  31.281  25.130  1.00  0.00    -0.357 N 
ATOM      8  C   UNL     1     -47.247  32.466  25.820  1.00  0.00     0.046 A 
ATOM      9  C   UNL     1     -46.256  33.213  26.469  1.00  0.00    -0.033 A 
ATOM     10  H   UNL     1     -48.276  35.734  27.581  1.00  0.00     0.063 H 
ATOM     11  H   UNL     1     -49.992  34.383  26.423  1.00  0.00     0.063 H 
ATOM     12  H   UNL     1     -50.356  31.864  24.841  1.00  0.00     0.065 H 
ATOM     13  H   UNL     1     -46.316  30.736  25.003  1.00  0.00     0.166 HD
ATOM     14  H   UNL     1     -45.224  32.874  26.482  1.00  0.00     0.065 H 
ENDROOT
BRANCH   1  15
ATOM     15  C   UNL     1     -45.614  35.243  27.831  1.00  0.00     0.043 C 
ATOM     16  H   UNL     1     -45.754  35.152  28.914  1.00  0.00     0.054 H 
ATOM     17  H   UNL     1     -44.603  34.885  27.604  1.00  0.00     0.054 H 
BRANCH  15  18
ATOM     18  N   UNL     1     -45.752  36.636  27.494  1.00  0.00    -0.347 N 
ATOM     19  O   UNL     1     -44.869  37.485  29.442  1.00  0.00    -0.268 OA
ATOM     20  C   UNL     1     -45.297  37.645  28.305  1.00  0.00     0.270 C 
ATOM     21  H   UNL     1     -45.970  36.896  26.538  1.00  0.00     0.164 HD
BRANCH  20  22
ATOM     22  C   UNL     1     -45.369  38.996  27.634  1.00  0.00     0.136 A 
ATOM     23  C   UNL     1     -46.574  39.391  27.218  1.00  0.00     0.035 A 
ATOM     24  N   UNL     1     -44.212  39.731  27.500  1.00  0.00    -0.225 NA
ATOM     25  C   UNL     1     -46.691  40.701  26.567  1.00  0.00     0.258 A 
ATOM     26  H   UNL     1     -47.477  38.805  27.333  1.00  0.00     0.071 H 
ATOM     27  C   UNL     1     -44.321  40.890  26.927  1.00  0.00     0.140 A 
ATOM     28  O   UNL     1     -47.798  41.070  26.177  1.00  0.00    -0.269 OA
ATOM     29  N   UNL     1     -45.513  41.423  26.447  1.00  0.00    -0.268 N 
ATOM     30  C   UNL     1     -43.095  41.723  26.762  1.00  0.00    -0.019 A 
ATOM     31  C   UNL     1     -45.544  42.676  25.843  1.00  0.00     0.014 A 
ATOM     32  C   UNL     1     -43.176  42.923  26.174  1.00  0.00    -0.057 A 
ATOM     33  H   UNL     1     -42.163  41.318  27.135  1.00  0.00     0.066 H 
ATOM     34  C   UNL     1     -44.440  43.417  25.698  1.00  0.00    -0.045 A 
ATOM     35  H   UNL     1     -46.511  43.029  25.491  1.00  0.00     0.082 H 
ATOM     36  H   UNL     1     -42.296  43.544  26.047  1.00  0.00     0.062 H 
ATOM     37  H   UNL     1     -44.476  44.393  25.225  1.00  0.00     0.064 H 
ENDBRANCH  20  22
ENDBRANCH  15  18
ENDBRANCH   1  15
BRANCH   6  38
ATOM     38  C   UNL     1     -48.576  29.645  23.867  1.00  0.00     0.039 C 
ATOM     39  H   UNL     1     -49.634  29.521  23.604  1.00  0.00     0.050 H 
ATOM     40  H   UNL     1     -48.026  29.771  22.924  1.00  0.00     0.050 H 
BRANCH  38  41
ATOM     41  N   UNL     1     -48.029  28.481  24.584  1.00  0.00    -0.296 NA
ATOM     42  C   UNL     1     -48.788  28.239  25.845  1.00  0.00     0.005 C 
ATOM     43  C   UNL     1     -48.570  27.227  23.995  1.00  0.00     0.005 C 
ATOM     44  C   UNL     1     -49.502  27.104  25.163  1.00  0.00    -0.004 C 
ATOM     45  H   UNL     1     -48.134  27.937  26.671  1.00  0.00     0.044 H 
ATOM     46  H   UNL     1     -49.417  29.061  26.207  1.00  0.00     0.044 H 
ATOM     47  H   UNL     1     -47.816  26.434  23.934  1.00  0.00     0.044 H 
ATOM     48  H   UNL     1     -49.040  27.315  23.008  1.00  0.00     0.044 H 
ATOM     49  C   UNL     1     -50.995  27.202  24.952  1.00  0.00    -0.045 C 
ATOM     50  C   UNL     1     -49.656  25.788  25.883  1.00  0.00    -0.045 C 
ATOM     51  C   UNL     1     -51.132  26.197  26.125  1.00  0.00    -0.052 C 
ATOM     52  H   UNL     1     -51.461  28.178  25.118  1.00  0.00     0.027 H 
ATOM     53  H   UNL     1     -51.345  26.800  23.995  1.00  0.00     0.027 H 
ATOM     54  H   UNL     1     -49.550  24.907  25.240  1.00  0.00     0.027 H 
ATOM     55  H   UNL     1     -49.058  25.642  26.786  1.00  0.00     0.027 H 
ATOM     56  H   UNL     1     -51.301  26.677  27.096  1.00  0.00     0.027 H 
ATOM     57  H   UNL     1     -51.872  25.404  25.985  1.00  0.00     0.027 H 
ENDBRANCH  38  41
ENDBRANCH   6  38
TORSDOF 5
ENDMDL
