MODEL 1
REMARK VINA RESULT:     -11.8      0.000      0.000
REMARK SMILES O=C(NCc1ccc2cc(CN3CCC4(CCCC4)C3)[nH]c2c1)c1cc(=O)n2ccccc2n1
REMARK SMILES IDX 5 1 6 2 7 3 8 4 9 5 10 6 21 7 22 8 23 9 4 15 3 18 1 19 2 20
REMARK SMILES IDX 24 22 25 23 34 24 26 25 33 27 27 28 28 29 32 30 29 31 31 32
REMARK SMILES IDX 30 34 11 38 12 41 13 42 20 43 14 44 15 47 16 52 19 53 17 54
REMARK SMILES IDX 18 57
REMARK H PARENT 6 10 7 11 9 12 21 13 23 14 4 16 4 17 3 21 25 26 32 33 29 35
REMARK H PARENT 31 36 30 37 11 39 11 40 13 45 13 46 20 48 20 49 14 50 14 51
REMARK H PARENT 16 55 16 56 19 58 19 59 17 60 17 61 18 62 18 63
REMARK Flexibility Score: inf
ROOT
ATOM      1  C   UNL     1     -47.630  34.840  26.999  1.00  0.00    -0.027 A 
ATOM      2  C   UNL     1     -46.355  34.622  26.464  1.00  0.00    -0.057 A 
ATOM      3  C   UNL     1     -46.135  33.627  25.501  1.00  0.00    -0.052 A 
ATOM      4  C   UNL     1     -47.213  32.830  25.073  1.00  0.00    -0.000 A 
ATOM      5  C   UNL     1     -47.346  31.765  24.143  1.00  0.00    -0.032 A 
ATOM      6  C   UNL     1     -48.668  31.361  24.138  1.00  0.00     0.030 A 
ATOM      7  N   UNL     1     -49.335  32.154  25.041  1.00  0.00    -0.357 N 
ATOM      8  C   UNL     1     -48.473  33.055  25.623  1.00  0.00     0.046 A 
ATOM      9  C   UNL     1     -48.712  34.043  26.586  1.00  0.00    -0.033 A 
ATOM     10  H   UNL     1     -45.513  35.227  26.792  1.00  0.00     0.063 H 
ATOM     11  H   UNL     1     -45.141  33.473  25.090  1.00  0.00     0.063 H 
ATOM     12  H   UNL     1     -46.564  31.339  23.529  1.00  0.00     0.065 H 
ATOM     13  H   UNL     1     -50.322  32.098  25.247  1.00  0.00     0.166 HD
ATOM     14  H   UNL     1     -49.705  34.190  27.004  1.00  0.00     0.065 H 
ENDROOT
BRANCH   1  15
ATOM     15  C   UNL     1     -47.838  35.893  28.057  1.00  0.00     0.043 C 
ATOM     16  H   UNL     1     -47.817  35.447  29.059  1.00  0.00     0.054 H 
ATOM     17  H   UNL     1     -48.818  36.371  27.945  1.00  0.00     0.054 H 
BRANCH  15  18
ATOM     18  N   UNL     1     -46.826  36.910  27.970  1.00  0.00    -0.347 N 
ATOM     19  O   UNL     1     -45.970  36.577  30.074  1.00  0.00    -0.268 OA
ATOM     20  C   UNL     1     -45.994  37.202  29.021  1.00  0.00     0.270 C 
ATOM     21  H   UNL     1     -46.814  37.550  27.181  1.00  0.00     0.164 HD
BRANCH  20  22
ATOM     22  C   UNL     1     -45.110  38.394  28.743  1.00  0.00     0.136 A 
ATOM     23  C   UNL     1     -44.214  38.701  29.682  1.00  0.00     0.035 A 
ATOM     24  N   UNL     1     -45.278  39.082  27.562  1.00  0.00    -0.225 NA
ATOM     25  C   UNL     1     -43.333  39.853  29.453  1.00  0.00     0.258 A 
ATOM     26  H   UNL     1     -44.092  38.153  30.608  1.00  0.00     0.071 H 
ATOM     27  C   UNL     1     -44.498  40.100  27.364  1.00  0.00     0.140 A 
ATOM     28  O   UNL     1     -42.503  40.144  30.313  1.00  0.00    -0.269 OA
ATOM     29  N   UNL     1     -43.522  40.529  28.256  1.00  0.00    -0.268 N 
ATOM     30  C   UNL     1     -44.644  40.874  26.098  1.00  0.00    -0.019 A 
ATOM     31  C   UNL     1     -42.726  41.633  27.968  1.00  0.00     0.014 A 
ATOM     32  C   UNL     1     -43.855  41.929  25.866  1.00  0.00    -0.057 A 
ATOM     33  H   UNL     1     -45.401  40.547  25.397  1.00  0.00     0.066 H 
ATOM     34  C   UNL     1     -42.863  42.324  26.830  1.00  0.00    -0.045 A 
ATOM     35  H   UNL     1     -41.983  41.913  28.711  1.00  0.00     0.082 H 
ATOM     36  H   UNL     1     -43.946  42.506  24.951  1.00  0.00     0.062 H 
ATOM     37  H   UNL     1     -42.236  43.184  26.615  1.00  0.00     0.064 H 
ENDBRANCH  20  22
ENDBRANCH  15  18
ENDBRANCH   1  15
BRANCH   6  38
ATOM     38  C   UNL     1     -49.360  30.292  23.359  1.00  0.00     0.039 C 
ATOM     39  H   UNL     1     -50.433  30.374  23.573  1.00  0.00     0.050 H 
ATOM     40  H   UNL     1     -49.242  30.458  22.280  1.00  0.00     0.050 H 
BRANCH  38  41
ATOM     41  N   UNL     1     -48.889  28.965  23.744  1.00  0.00    -0.297 NA
ATOM     42  C   UNL     1     -49.774  27.875  23.322  1.00  0.00    -0.001 C 
ATOM     43  C   UNL     1     -48.754  28.822  25.194  1.00  0.00     0.004 C 
ATOM     44  C   UNL     1     -49.490  26.730  24.298  1.00  0.00    -0.033 C 
ATOM     45  H   UNL     1     -50.833  28.154  23.393  1.00  0.00     0.043 H 
ATOM     46  H   UNL     1     -49.568  27.570  22.291  1.00  0.00     0.043 H 
ATOM     47  C   UNL     1     -48.523  27.322  25.337  1.00  0.00    -0.016 C 
ATOM     48  H   UNL     1     -47.918  29.413  25.584  1.00  0.00     0.044 H 
ATOM     49  H   UNL     1     -49.671  29.127  25.717  1.00  0.00     0.044 H 
ATOM     50  H   UNL     1     -50.431  26.413  24.765  1.00  0.00     0.029 H 
ATOM     51  H   UNL     1     -49.069  25.865  23.776  1.00  0.00     0.029 H 
ATOM     52  C   UNL     1     -47.070  26.899  25.056  1.00  0.00    -0.046 C 
ATOM     53  C   UNL     1     -48.733  26.787  26.751  1.00  0.00    -0.046 C 
ATOM     54  C   UNL     1     -46.925  25.528  25.716  1.00  0.00    -0.053 C 
ATOM     55  H   UNL     1     -46.370  27.599  25.529  1.00  0.00     0.027 H 
ATOM     56  H   UNL     1     -46.823  26.861  23.989  1.00  0.00     0.027 H 
ATOM     57  C   UNL     1     -48.056  25.422  26.739  1.00  0.00    -0.053 C 
ATOM     58  H   UNL     1     -48.235  27.437  27.482  1.00  0.00     0.027 H 
ATOM     59  H   UNL     1     -49.787  26.716  27.036  1.00  0.00     0.027 H 
ATOM     60  H   UNL     1     -47.014  24.726  24.974  1.00  0.00     0.027 H 
ATOM     61  H   UNL     1     -45.942  25.426  26.190  1.00  0.00     0.027 H 
ATOM     62  H   UNL     1     -48.767  24.649  26.426  1.00  0.00     0.027 H 
ATOM     63  H   UNL     1     -47.686  25.145  27.731  1.00  0.00     0.027 H 
ENDBRANCH  38  41
ENDBRANCH   6  38
TORSDOF 5
ENDMDL
MODEL 2
REMARK VINA RESULT:     -11.8      1.758      2.285
REMARK SMILES O=C(NCc1ccc2cc(CN3CCC4(CCCC4)C3)[nH]c2c1)c1cc(=O)n2ccccc2n1
REMARK SMILES IDX 5 1 6 2 7 3 8 4 9 5 10 6 21 7 22 8 23 9 4 15 3 18 1 19 2 20
REMARK SMILES IDX 24 22 25 23 34 24 26 25 33 27 27 28 28 29 32 30 29 31 31 32
REMARK SMILES IDX 30 34 11 38 12 41 13 42 20 43 14 44 15 47 16 52 19 53 17 54
REMARK SMILES IDX 18 57
REMARK H PARENT 6 10 7 11 9 12 21 13 23 14 4 16 4 17 3 21 25 26 32 33 29 35
REMARK H PARENT 31 36 30 37 11 39 11 40 13 45 13 46 20 48 20 49 14 50 14 51
REMARK H PARENT 16 55 16 56 19 58 19 59 17 60 17 61 18 62 18 63
REMARK Flexibility Score: inf
ROOT
ATOM      1  C   UNL     1     -47.893  35.785  27.014  1.00  0.00    -0.027 A 
ATOM      2  C   UNL     1     -46.601  35.560  26.525  1.00  0.00    -0.057 A 
ATOM      3  C   UNL     1     -46.283  34.383  25.834  1.00  0.00    -0.052 A 
ATOM      4  C   UNL     1     -47.279  33.409  25.637  1.00  0.00    -0.000 A 
ATOM      5  C   UNL     1     -47.307  32.138  25.001  1.00  0.00    -0.032 A 
ATOM      6  C   UNL     1     -48.584  31.625  25.122  1.00  0.00     0.030 A 
ATOM      7  N   UNL     1     -49.327  32.551  25.814  1.00  0.00    -0.357 N 
ATOM      8  C   UNL     1     -48.557  33.645  26.139  1.00  0.00     0.046 A 
ATOM      9  C   UNL     1     -48.893  34.814  26.832  1.00  0.00    -0.033 A 
ATOM     10  H   UNL     1     -45.822  36.304  26.677  1.00  0.00     0.063 H 
ATOM     11  H   UNL     1     -45.277  34.225  25.455  1.00  0.00     0.063 H 
ATOM     12  H   UNL     1     -46.485  31.648  24.497  1.00  0.00     0.065 H 
ATOM     13  H   UNL     1     -50.305  32.457  26.046  1.00  0.00     0.166 HD
ATOM     14  H   UNL     1     -49.897  34.966  27.220  1.00  0.00     0.065 H 
ENDROOT
BRANCH   1  15
ATOM     15  C   UNL     1     -48.205  37.043  27.783  1.00  0.00     0.043 C 
ATOM     16  H   UNL     1     -48.501  36.806  28.813  1.00  0.00     0.054 H 
ATOM     17  H   UNL     1     -49.046  37.581  27.329  1.00  0.00     0.054 H 
BRANCH  15  18
ATOM     18  N   UNL     1     -47.066  37.922  27.807  1.00  0.00    -0.347 N 
ATOM     19  O   UNL     1     -48.197  39.798  27.118  1.00  0.00    -0.268 OA
ATOM     20  C   UNL     1     -47.152  39.235  27.422  1.00  0.00     0.270 C 
ATOM     21  H   UNL     1     -46.135  37.543  27.953  1.00  0.00     0.164 HD
BRANCH  20  22
ATOM     22  C   UNL     1     -45.806  39.918  27.400  1.00  0.00     0.136 A 
ATOM     23  C   UNL     1     -45.527  40.648  26.318  1.00  0.00     0.035 A 
ATOM     24  N   UNL     1     -44.960  39.750  28.473  1.00  0.00    -0.225 NA
ATOM     25  C   UNL     1     -44.229  41.330  26.254  1.00  0.00     0.258 A 
ATOM     26  H   UNL     1     -46.200  40.772  25.478  1.00  0.00     0.071 H 
ATOM     27  C   UNL     1     -43.814  40.354  28.413  1.00  0.00     0.140 A 
ATOM     28  O   UNL     1     -43.964  42.007  25.262  1.00  0.00    -0.269 OA
ATOM     29  N   UNL     1     -43.396  41.146  27.348  1.00  0.00    -0.268 N 
ATOM     30  C   UNL     1     -42.866  40.201  29.554  1.00  0.00    -0.019 A 
ATOM     31  C   UNL     1     -42.147  41.759  27.361  1.00  0.00     0.014 A 
ATOM     32  C   UNL     1     -41.676  40.811  29.519  1.00  0.00    -0.057 A 
ATOM     33  H   UNL     1     -43.183  39.587  30.387  1.00  0.00     0.066 H 
ATOM     34  C   UNL     1     -41.301  41.617  28.388  1.00  0.00    -0.045 A 
ATOM     35  H   UNL     1     -41.886  42.364  26.495  1.00  0.00     0.082 H 
ATOM     36  H   UNL     1     -40.972  40.712  30.340  1.00  0.00     0.062 H 
ATOM     37  H   UNL     1     -40.329  42.101  28.388  1.00  0.00     0.064 H 
ENDBRANCH  20  22
ENDBRANCH  15  18
ENDBRANCH   1  15
BRANCH   6  38
ATOM     38  C   UNL     1     -49.167  30.336  24.645  1.00  0.00     0.039 C 
ATOM     39  H   UNL     1     -50.170  30.249  25.083  1.00  0.00     0.050 H 
ATOM     40  H   UNL     1     -49.302  30.350  23.555  1.00  0.00     0.050 H 
BRANCH  38  41
ATOM     41  N   UNL     1     -48.355  29.198  25.064  1.00  0.00    -0.297 NA
ATOM     42  C   UNL     1     -47.568  28.600  23.981  1.00  0.00    -0.001 C 
ATOM     43  C   UNL     1     -49.165  28.108  25.610  1.00  0.00     0.004 C 
ATOM     44  C   UNL     1     -47.323  27.153  24.418  1.00  0.00    -0.033 C 
ATOM     45  H   UNL     1     -48.112  28.600  23.028  1.00  0.00     0.043 H 
ATOM     46  H   UNL     1     -46.621  29.130  23.836  1.00  0.00     0.043 H 
ATOM     47  C   UNL     1     -48.141  26.983  25.710  1.00  0.00    -0.016 C 
ATOM     48  H   UNL     1     -49.595  28.370  26.582  1.00  0.00     0.044 H 
ATOM     49  H   UNL     1     -49.982  27.832  24.928  1.00  0.00     0.044 H 
ATOM     50  H   UNL     1     -47.674  26.474  23.631  1.00  0.00     0.029 H 
ATOM     51  H   UNL     1     -46.255  26.964  24.569  1.00  0.00     0.029 H 
ATOM     52  C   UNL     1     -47.246  27.082  26.958  1.00  0.00    -0.046 C 
ATOM     53  C   UNL     1     -48.751  25.594  25.876  1.00  0.00    -0.046 C 
ATOM     54  C   UNL     1     -46.676  25.676  27.146  1.00  0.00    -0.053 C 
ATOM     55  H   UNL     1     -47.846  27.344  27.839  1.00  0.00     0.027 H 
ATOM     56  H   UNL     1     -46.451  27.831  26.870  1.00  0.00     0.027 H 
ATOM     57  C   UNL     1     -47.593  24.733  26.367  1.00  0.00    -0.053 C 
ATOM     58  H   UNL     1     -49.542  25.613  26.636  1.00  0.00     0.027 H 
ATOM     59  H   UNL     1     -49.188  25.199  24.953  1.00  0.00     0.027 H 
ATOM     60  H   UNL     1     -45.654  25.615  26.753  1.00  0.00     0.027 H 
ATOM     61  H   UNL     1     -46.633  25.411  28.208  1.00  0.00     0.027 H 
ATOM     62  H   UNL     1     -47.050  24.307  25.516  1.00  0.00     0.027 H 
ATOM     63  H   UNL     1     -47.942  23.899  26.985  1.00  0.00     0.027 H 
ENDBRANCH  38  41
ENDBRANCH   6  38
TORSDOF 5
ENDMDL
MODEL 3
REMARK VINA RESULT:     -11.1      1.435      2.296
REMARK SMILES O=C(NCc1ccc2cc(CN3CCC4(CCCC4)C3)[nH]c2c1)c1cc(=O)n2ccccc2n1
REMARK SMILES IDX 5 1 6 2 7 3 8 4 9 5 10 6 21 7 22 8 23 9 4 15 3 18 1 19 2 20
REMARK SMILES IDX 24 22 25 23 34 24 26 25 33 27 27 28 28 29 32 30 29 31 31 32
REMARK SMILES IDX 30 34 11 38 12 41 13 42 20 43 14 44 15 47 16 52 19 53 17 54
REMARK SMILES IDX 18 57
REMARK H PARENT 6 10 7 11 9 12 21 13 23 14 4 16 4 17 3 21 25 26 32 33 29 35
REMARK H PARENT 31 36 30 37 11 39 11 40 13 45 13 46 20 48 20 49 14 50 14 51
REMARK H PARENT 16 55 16 56 19 58 19 59 17 60 17 61 18 62 18 63
REMARK Flexibility Score: inf
ROOT
ATOM      1  C   UNL     1     -46.549  35.591  28.353  1.00  0.00    -0.027 A 
ATOM      2  C   UNL     1     -47.883  35.821  27.994  1.00  0.00    -0.057 A 
ATOM      3  C   UNL     1     -48.488  35.098  26.957  1.00  0.00    -0.052 A 
ATOM      4  C   UNL     1     -47.738  34.132  26.260  1.00  0.00    -0.000 A 
ATOM      5  C   UNL     1     -48.023  33.244  25.189  1.00  0.00    -0.032 A 
ATOM      6  C   UNL     1     -46.880  32.515  24.919  1.00  0.00     0.030 A 
ATOM      7  N   UNL     1     -45.914  32.940  25.799  1.00  0.00    -0.357 N 
ATOM      8  C   UNL     1     -46.410  33.923  26.625  1.00  0.00     0.046 A 
ATOM      9  C   UNL     1     -45.788  34.635  27.657  1.00  0.00    -0.033 A 
ATOM     10  H   UNL     1     -48.470  36.570  28.521  1.00  0.00     0.063 H 
ATOM     11  H   UNL     1     -49.525  35.283  26.693  1.00  0.00     0.063 H 
ATOM     12  H   UNL     1     -48.966  33.136  24.670  1.00  0.00     0.065 H 
ATOM     13  H   UNL     1     -44.972  32.580  25.848  1.00  0.00     0.166 HD
ATOM     14  H   UNL     1     -44.747  34.457  27.913  1.00  0.00     0.065 H 
ENDROOT
BRANCH   1  15
ATOM     15  C   UNL     1     -45.909  36.402  29.449  1.00  0.00     0.043 C 
ATOM     16  H   UNL     1     -45.208  35.788  30.029  1.00  0.00     0.054 H 
ATOM     17  H   UNL     1     -46.663  36.770  30.155  1.00  0.00     0.054 H 
BRANCH  15  18
ATOM     18  N   UNL     1     -45.209  37.534  28.904  1.00  0.00    -0.347 N 
ATOM     19  O   UNL     1     -44.224  38.179  30.876  1.00  0.00    -0.268 OA
ATOM     20  C   UNL     1     -44.450  38.367  29.687  1.00  0.00     0.270 C 
ATOM     21  H   UNL     1     -45.395  37.838  27.953  1.00  0.00     0.164 HD
BRANCH  20  22
ATOM     22  C   UNL     1     -43.927  39.559  28.922  1.00  0.00     0.136 A 
ATOM     23  C   UNL     1     -42.922  40.231  29.485  1.00  0.00     0.035 A 
ATOM     24  N   UNL     1     -44.506  39.876  27.714  1.00  0.00    -0.225 NA
ATOM     25  C   UNL     1     -42.382  41.397  28.775  1.00  0.00     0.258 A 
ATOM     26  H   UNL     1     -42.475  39.972  30.437  1.00  0.00     0.071 H 
ATOM     27  C   UNL     1     -44.026  40.908  27.090  1.00  0.00     0.140 A 
ATOM     28  O   UNL     1     -41.454  42.023  29.285  1.00  0.00    -0.269 OA
ATOM     29  N   UNL     1     -42.982  41.696  27.560  1.00  0.00    -0.268 N 
ATOM     30  C   UNL     1     -44.623  41.288  25.778  1.00  0.00    -0.019 A 
ATOM     31  C   UNL     1     -42.526  42.788  26.829  1.00  0.00     0.014 A 
ATOM     32  C   UNL     1     -44.150  42.348  25.112  1.00  0.00    -0.057 A 
ATOM     33  H   UNL     1     -45.436  40.680  25.404  1.00  0.00     0.066 H 
ATOM     34  C   UNL     1     -43.066  43.125  25.652  1.00  0.00    -0.045 A 
ATOM     35  H   UNL     1     -41.706  43.361  27.257  1.00  0.00     0.082 H 
ATOM     36  H   UNL     1     -44.571  42.641  24.155  1.00  0.00     0.062 H 
ATOM     37  H   UNL     1     -42.702  43.979  25.089  1.00  0.00     0.064 H 
ENDBRANCH  20  22
ENDBRANCH  15  18
ENDBRANCH   1  15
BRANCH   6  38
ATOM     38  C   UNL     1     -46.616  31.453  23.903  1.00  0.00     0.039 C 
ATOM     39  H   UNL     1     -47.110  31.761  22.972  1.00  0.00     0.050 H 
ATOM     40  H   UNL     1     -45.544  31.385  23.681  1.00  0.00     0.050 H 
BRANCH  38  41
ATOM     41  N   UNL     1     -47.151  30.164  24.332  1.00  0.00    -0.297 NA
ATOM     42  C   UNL     1     -46.734  29.039  23.490  1.00  0.00    -0.001 C 
ATOM     43  C   UNL     1     -48.614  30.139  24.325  1.00  0.00     0.004 C 
ATOM     44  C   UNL     1     -47.822  27.978  23.675  1.00  0.00    -0.033 C 
ATOM     45  H   UNL     1     -46.679  29.316  22.429  1.00  0.00     0.043 H 
ATOM     46  H   UNL     1     -45.756  28.653  23.795  1.00  0.00     0.043 H 
ATOM     47  C   UNL     1     -48.899  28.656  24.538  1.00  0.00    -0.016 C 
ATOM     48  H   UNL     1     -49.034  30.764  25.120  1.00  0.00     0.044 H 
ATOM     49  H   UNL     1     -49.019  30.479  23.362  1.00  0.00     0.044 H 
ATOM     50  H   UNL     1     -48.219  27.693  22.692  1.00  0.00     0.029 H 
ATOM     51  H   UNL     1     -47.415  27.075  24.143  1.00  0.00     0.029 H 
ATOM     52  C   UNL     1     -48.795  28.220  26.010  1.00  0.00    -0.046 C 
ATOM     53  C   UNL     1     -50.324  28.236  24.191  1.00  0.00    -0.046 C 
ATOM     54  C   UNL     1     -49.574  26.908  26.088  1.00  0.00    -0.053 C 
ATOM     55  H   UNL     1     -49.276  28.960  26.663  1.00  0.00     0.027 H 
ATOM     56  H   UNL     1     -47.764  28.098  26.360  1.00  0.00     0.027 H 
ATOM     57  C   UNL     1     -50.488  26.878  24.863  1.00  0.00    -0.053 C 
ATOM     58  H   UNL     1     -51.046  28.945  24.616  1.00  0.00     0.027 H 
ATOM     59  H   UNL     1     -50.510  28.181  23.113  1.00  0.00     0.027 H 
ATOM     60  H   UNL     1     -48.894  26.049  26.070  1.00  0.00     0.027 H 
ATOM     61  H   UNL     1     -50.148  26.850  27.020  1.00  0.00     0.027 H 
ATOM     62  H   UNL     1     -50.171  26.078  24.184  1.00  0.00     0.027 H 
ATOM     63  H   UNL     1     -51.530  26.683  25.134  1.00  0.00     0.027 H 
ENDBRANCH  38  41
ENDBRANCH   6  38
TORSDOF 5
ENDMDL
MODEL 4
REMARK VINA RESULT:     -10.8      2.031      3.465
REMARK SMILES O=C(NCc1ccc2cc(CN3CCC4(CCCC4)C3)[nH]c2c1)c1cc(=O)n2ccccc2n1
REMARK SMILES IDX 5 1 6 2 7 3 8 4 9 5 10 6 21 7 22 8 23 9 4 15 3 18 1 19 2 20
REMARK SMILES IDX 24 22 25 23 34 24 26 25 33 27 27 28 28 29 32 30 29 31 31 32
REMARK SMILES IDX 30 34 11 38 12 41 13 42 20 43 14 44 15 47 16 52 19 53 17 54
REMARK SMILES IDX 18 57
REMARK H PARENT 6 10 7 11 9 12 21 13 23 14 4 16 4 17 3 21 25 26 32 33 29 35
REMARK H PARENT 31 36 30 37 11 39 11 40 13 45 13 46 20 48 20 49 14 50 14 51
REMARK H PARENT 16 55 16 56 19 58 19 59 17 60 17 61 18 62 18 63
REMARK Flexibility Score: inf
ROOT
ATOM      1  C   UNL     1     -46.566  35.556  28.524  1.00  0.00    -0.027 A 
ATOM      2  C   UNL     1     -47.819  35.947  28.035  1.00  0.00    -0.057 A 
ATOM      3  C   UNL     1     -48.448  35.234  27.005  1.00  0.00    -0.052 A 
ATOM      4  C   UNL     1     -47.805  34.113  26.449  1.00  0.00    -0.000 A 
ATOM      5  C   UNL     1     -48.141  33.188  25.424  1.00  0.00    -0.032 A 
ATOM      6  C   UNL     1     -47.106  32.280  25.309  1.00  0.00     0.030 A 
ATOM      7  N   UNL     1     -46.155  32.632  26.236  1.00  0.00    -0.357 N 
ATOM      8  C   UNL     1     -46.555  33.744  26.941  1.00  0.00     0.046 A 
ATOM      9  C   UNL     1     -45.910  34.443  27.969  1.00  0.00    -0.033 A 
ATOM     10  H   UNL     1     -48.322  36.816  28.453  1.00  0.00     0.063 H 
ATOM     11  H   UNL     1     -49.422  35.546  26.639  1.00  0.00     0.063 H 
ATOM     12  H   UNL     1     -49.048  33.175  24.835  1.00  0.00     0.065 H 
ATOM     13  H   UNL     1     -45.284  32.143  26.392  1.00  0.00     0.166 HD
ATOM     14  H   UNL     1     -44.931  34.137  28.326  1.00  0.00     0.065 H 
ENDROOT
BRANCH   1  15
ATOM     15  C   UNL     1     -45.893  36.355  29.610  1.00  0.00     0.043 C 
ATOM     16  H   UNL     1     -45.199  35.727  30.181  1.00  0.00     0.054 H 
ATOM     17  H   UNL     1     -46.629  36.742  30.324  1.00  0.00     0.054 H 
BRANCH  15  18
ATOM     18  N   UNL     1     -45.174  37.469  29.052  1.00  0.00    -0.347 N 
ATOM     19  O   UNL     1     -44.328  38.230  31.046  1.00  0.00    -0.268 OA
ATOM     20  C   UNL     1     -44.479  38.353  29.837  1.00  0.00     0.270 C 
ATOM     21  H   UNL     1     -45.303  37.720  28.076  1.00  0.00     0.164 HD
BRANCH  20  22
ATOM     22  C   UNL     1     -43.924  39.513  29.045  1.00  0.00     0.136 A 
ATOM     23  C   UNL     1     -42.885  40.156  29.582  1.00  0.00     0.035 A 
ATOM     24  N   UNL     1     -44.510  39.835  27.842  1.00  0.00    -0.225 NA
ATOM     25  C   UNL     1     -42.313  41.290  28.846  1.00  0.00     0.258 A 
ATOM     26  H   UNL     1     -42.432  39.894  30.531  1.00  0.00     0.071 H 
ATOM     27  C   UNL     1     -44.002  40.838  27.195  1.00  0.00     0.140 A 
ATOM     28  O   UNL     1     -41.354  41.887  29.332  1.00  0.00    -0.269 OA
ATOM     29  N   UNL     1     -42.921  41.593  27.636  1.00  0.00    -0.268 N 
ATOM     30  C   UNL     1     -44.605  41.222  25.887  1.00  0.00    -0.019 A 
ATOM     31  C   UNL     1     -42.436  42.656  26.881  1.00  0.00     0.014 A 
ATOM     32  C   UNL     1     -44.103  42.253  25.197  1.00  0.00    -0.057 A 
ATOM     33  H   UNL     1     -45.447  40.639  25.535  1.00  0.00     0.066 H 
ATOM     34  C   UNL     1     -42.982  42.996  25.708  1.00  0.00    -0.045 A 
ATOM     35  H   UNL     1     -41.589  43.204  27.288  1.00  0.00     0.082 H 
ATOM     36  H   UNL     1     -44.528  42.548  24.243  1.00  0.00     0.062 H 
ATOM     37  H   UNL     1     -42.596  43.827  25.127  1.00  0.00     0.064 H 
ENDBRANCH  20  22
ENDBRANCH  15  18
ENDBRANCH   1  15
BRANCH   6  38
ATOM     38  C   UNL     1     -46.933  31.107  24.400  1.00  0.00     0.039 C 
ATOM     39  H   UNL     1     -46.108  31.344  23.715  1.00  0.00     0.050 H 
ATOM     40  H   UNL     1     -46.624  30.219  24.966  1.00  0.00     0.050 H 
BRANCH  38  41
ATOM     41  N   UNL     1     -48.145  30.850  23.628  1.00  0.00    -0.297 NA
ATOM     42  C   UNL     1     -48.792  29.574  23.949  1.00  0.00    -0.001 C 
ATOM     43  C   UNL     1     -47.889  30.811  22.188  1.00  0.00     0.004 C 
ATOM     44  C   UNL     1     -49.589  29.206  22.695  1.00  0.00    -0.033 C 
ATOM     45  H   UNL     1     -48.062  28.782  24.155  1.00  0.00     0.043 H 
ATOM     46  H   UNL     1     -49.452  29.668  24.817  1.00  0.00     0.043 H 
ATOM     47  C   UNL     1     -49.213  30.274  21.654  1.00  0.00    -0.016 C 
ATOM     48  H   UNL     1     -47.650  31.802  21.792  1.00  0.00     0.044 H 
ATOM     49  H   UNL     1     -47.064  30.127  21.944  1.00  0.00     0.044 H 
ATOM     50  H   UNL     1     -49.295  28.203  22.361  1.00  0.00     0.029 H 
ATOM     51  H   UNL     1     -50.664  29.184  22.905  1.00  0.00     0.029 H 
ATOM     52  C   UNL     1     -50.305  31.352  21.536  1.00  0.00    -0.046 C 
ATOM     53  C   UNL     1     -49.143  29.746  20.224  1.00  0.00    -0.046 C 
ATOM     54  C   UNL     1     -51.325  30.773  20.557  1.00  0.00    -0.053 C 
ATOM     55  H   UNL     1     -49.887  32.275  21.112  1.00  0.00     0.027 H 
ATOM     56  H   UNL     1     -50.768  31.614  22.494  1.00  0.00     0.027 H 
ATOM     57  C   UNL     1     -50.600  29.674  19.781  1.00  0.00    -0.053 C 
ATOM     58  H   UNL     1     -48.600  30.451  19.583  1.00  0.00     0.027 H 
ATOM     59  H   UNL     1     -48.645  28.775  20.144  1.00  0.00     0.027 H 
ATOM     60  H   UNL     1     -52.183  30.350  21.093  1.00  0.00     0.027 H 
ATOM     61  H   UNL     1     -51.709  31.551  19.888  1.00  0.00     0.027 H 
ATOM     62  H   UNL     1     -51.026  28.696  20.037  1.00  0.00     0.027 H 
ATOM     63  H   UNL     1     -50.700  29.801  18.699  1.00  0.00     0.027 H 
ENDBRANCH  38  41
ENDBRANCH   6  38
TORSDOF 5
ENDMDL
MODEL 5
REMARK VINA RESULT:     -10.7      1.600      2.201
REMARK SMILES O=C(NCc1ccc2cc(CN3CCC4(CCCC4)C3)[nH]c2c1)c1cc(=O)n2ccccc2n1
REMARK SMILES IDX 5 1 6 2 7 3 8 4 9 5 10 6 21 7 22 8 23 9 4 15 3 18 1 19 2 20
REMARK SMILES IDX 24 22 25 23 34 24 26 25 33 27 27 28 28 29 32 30 29 31 31 32
REMARK SMILES IDX 30 34 11 38 12 41 13 42 20 43 14 44 15 47 16 52 19 53 17 54
REMARK SMILES IDX 18 57
REMARK H PARENT 6 10 7 11 9 12 21 13 23 14 4 16 4 17 3 21 25 26 32 33 29 35
REMARK H PARENT 31 36 30 37 11 39 11 40 13 45 13 46 20 48 20 49 14 50 14 51
REMARK H PARENT 16 55 16 56 19 58 19 59 17 60 17 61 18 62 18 63
REMARK Flexibility Score: inf
ROOT
ATOM      1  C   UNL     1     -46.585  34.182  27.027  1.00  0.00    -0.027 A 
ATOM      2  C   UNL     1     -47.964  34.426  27.044  1.00  0.00    -0.057 A 
ATOM      3  C   UNL     1     -48.836  33.712  26.211  1.00  0.00    -0.052 A 
ATOM      4  C   UNL     1     -48.314  32.740  25.337  1.00  0.00    -0.000 A 
ATOM      5  C   UNL     1     -48.888  31.857  24.384  1.00  0.00    -0.032 A 
ATOM      6  C   UNL     1     -47.869  31.118  23.814  1.00  0.00     0.030 A 
ATOM      7  N   UNL     1     -46.696  31.531  24.398  1.00  0.00    -0.357 N 
ATOM      8  C   UNL     1     -46.939  32.517  25.327  1.00  0.00     0.046 A 
ATOM      9  C   UNL     1     -46.052  33.220  26.151  1.00  0.00    -0.033 A 
ATOM     10  H   UNL     1     -48.378  35.180  27.711  1.00  0.00     0.063 H 
ATOM     11  H   UNL     1     -49.904  33.908  26.239  1.00  0.00     0.063 H 
ATOM     12  H   UNL     1     -49.938  31.760  24.141  1.00  0.00     0.065 H 
ATOM     13  H   UNL     1     -45.780  31.161  24.189  1.00  0.00     0.166 HD
ATOM     14  H   UNL     1     -44.983  33.031  26.115  1.00  0.00     0.065 H 
ENDROOT
BRANCH   1  15
ATOM     15  C   UNL     1     -45.663  34.984  27.908  1.00  0.00     0.043 C 
ATOM     16  H   UNL     1     -44.654  34.552  27.910  1.00  0.00     0.054 H 
ATOM     17  H   UNL     1     -46.011  34.978  28.948  1.00  0.00     0.054 H 
BRANCH  15  18
ATOM     18  N   UNL     1     -45.592  36.350  27.463  1.00  0.00    -0.347 N 
ATOM     19  O   UNL     1     -44.989  37.233  29.495  1.00  0.00    -0.268 OA
ATOM     20  C   UNL     1     -45.301  37.380  28.319  1.00  0.00     0.270 C 
ATOM     21  H   UNL     1     -45.919  36.600  26.534  1.00  0.00     0.164 HD
BRANCH  20  22
ATOM     22  C   UNL     1     -45.419  38.732  27.656  1.00  0.00     0.136 A 
ATOM     23  C   UNL     1     -46.640  39.095  27.259  1.00  0.00     0.035 A 
ATOM     24  N   UNL     1     -44.283  39.494  27.500  1.00  0.00    -0.225 NA
ATOM     25  C   UNL     1     -46.801  40.401  26.610  1.00  0.00     0.258 A 
ATOM     26  H   UNL     1     -47.526  38.485  27.387  1.00  0.00     0.071 H 
ATOM     27  C   UNL     1     -44.429  40.648  26.925  1.00  0.00     0.140 A 
ATOM     28  O   UNL     1     -47.923  40.746  26.242  1.00  0.00    -0.269 OA
ATOM     29  N   UNL     1     -45.642  41.150  26.465  1.00  0.00    -0.268 N 
ATOM     30  C   UNL     1     -43.226  41.508  26.736  1.00  0.00    -0.019 A 
ATOM     31  C   UNL     1     -45.713  42.400  25.857  1.00  0.00     0.014 A 
ATOM     32  C   UNL     1     -43.346  42.703  26.145  1.00  0.00    -0.057 A 
ATOM     33  H   UNL     1     -42.278  41.125  27.091  1.00  0.00     0.066 H 
ATOM     34  C   UNL     1     -44.629  43.167  25.690  1.00  0.00    -0.045 A 
ATOM     35  H   UNL     1     -46.693  42.730  25.521  1.00  0.00     0.082 H 
ATOM     36  H   UNL     1     -42.482  43.343  25.998  1.00  0.00     0.062 H 
ATOM     37  H   UNL     1     -44.696  44.140  25.214  1.00  0.00     0.064 H 
ENDBRANCH  20  22
ENDBRANCH  15  18
ENDBRANCH   1  15
BRANCH   6  38
ATOM     38  C   UNL     1     -47.903  30.055  22.765  1.00  0.00     0.039 C 
ATOM     39  H   UNL     1     -48.834  30.185  22.198  1.00  0.00     0.050 H 
ATOM     40  H   UNL     1     -47.080  30.188  22.051  1.00  0.00     0.050 H 
BRANCH  38  41
ATOM     41  N   UNL     1     -47.879  28.722  23.359  1.00  0.00    -0.297 NA
ATOM     42  C   UNL     1     -49.011  27.878  22.965  1.00  0.00    -0.001 C 
ATOM     43  C   UNL     1     -47.910  28.764  24.821  1.00  0.00     0.004 C 
ATOM     44  C   UNL     1     -49.159  26.857  24.098  1.00  0.00    -0.033 C 
ATOM     45  H   UNL     1     -49.942  28.451  22.875  1.00  0.00     0.043 H 
ATOM     46  H   UNL     1     -48.822  27.376  22.010  1.00  0.00     0.043 H 
ATOM     47  C   UNL     1     -48.147  27.299  25.168  1.00  0.00    -0.016 C 
ATOM     48  H   UNL     1     -46.971  29.145  25.236  1.00  0.00     0.044 H 
ATOM     49  H   UNL     1     -48.735  29.390  25.189  1.00  0.00     0.044 H 
ATOM     50  H   UNL     1     -50.187  26.892  24.482  1.00  0.00     0.029 H 
ATOM     51  H   UNL     1     -48.973  25.840  23.737  1.00  0.00     0.029 H 
ATOM     52  C   UNL     1     -46.867  26.445  25.116  1.00  0.00    -0.046 C 
ATOM     53  C   UNL     1     -48.619  27.062  26.600  1.00  0.00    -0.046 C 
ATOM     54  C   UNL     1     -47.189  25.203  25.947  1.00  0.00    -0.053 C 
ATOM     55  H   UNL     1     -46.031  26.981  25.583  1.00  0.00     0.027 H 
ATOM     56  H   UNL     1     -46.558  26.181  24.099  1.00  0.00     0.027 H 
ATOM     57  C   UNL     1     -48.379  25.575  26.831  1.00  0.00    -0.053 C 
ATOM     58  H   UNL     1     -48.012  27.645  27.303  1.00  0.00     0.027 H 
ATOM     59  H   UNL     1     -49.667  27.335  26.762  1.00  0.00     0.027 H 
ATOM     60  H   UNL     1     -47.452  24.358  25.299  1.00  0.00     0.027 H 
ATOM     61  H   UNL     1     -46.323  24.899  26.544  1.00  0.00     0.027 H 
ATOM     62  H   UNL     1     -49.260  24.997  26.529  1.00  0.00     0.027 H 
ATOM     63  H   UNL     1     -48.189  25.355  27.887  1.00  0.00     0.027 H 
ENDBRANCH  38  41
ENDBRANCH   6  38
TORSDOF 5
ENDMDL
MODEL 6
REMARK VINA RESULT:     -10.5      2.527      3.580
REMARK SMILES O=C(NCc1ccc2cc(CN3CCC4(CCCC4)C3)[nH]c2c1)c1cc(=O)n2ccccc2n1
REMARK SMILES IDX 5 1 6 2 7 3 8 4 9 5 10 6 21 7 22 8 23 9 4 15 3 18 1 19 2 20
REMARK SMILES IDX 24 22 25 23 34 24 26 25 33 27 27 28 28 29 32 30 29 31 31 32
REMARK SMILES IDX 30 34 11 38 12 41 13 42 20 43 14 44 15 47 16 52 19 53 17 54
REMARK SMILES IDX 18 57
REMARK H PARENT 6 10 7 11 9 12 21 13 23 14 4 16 4 17 3 21 25 26 32 33 29 35
REMARK H PARENT 31 36 30 37 11 39 11 40 13 45 13 46 20 48 20 49 14 50 14 51
REMARK H PARENT 16 55 16 56 19 58 19 59 17 60 17 61 18 62 18 63
REMARK Flexibility Score: inf
ROOT
ATOM      1  C   UNL     1     -47.456  36.533  27.493  1.00  0.00    -0.027 A 
ATOM      2  C   UNL     1     -46.128  36.092  27.544  1.00  0.00    -0.057 A 
ATOM      3  C   UNL     1     -45.778  34.799  27.133  1.00  0.00    -0.052 A 
ATOM      4  C   UNL     1     -46.781  33.926  26.672  1.00  0.00    -0.000 A 
ATOM      5  C   UNL     1     -46.785  32.589  26.194  1.00  0.00    -0.032 A 
ATOM      6  C   UNL     1     -48.086  32.248  25.878  1.00  0.00     0.030 A 
ATOM      7  N   UNL     1     -48.868  33.344  26.153  1.00  0.00    -0.357 N 
ATOM      8  C   UNL     1     -48.099  34.378  26.638  1.00  0.00     0.046 A 
ATOM      9  C   UNL     1     -48.468  35.666  27.043  1.00  0.00    -0.033 A 
ATOM     10  H   UNL     1     -45.345  36.756  27.905  1.00  0.00     0.063 H 
ATOM     11  H   UNL     1     -44.743  34.473  27.172  1.00  0.00     0.063 H 
ATOM     12  H   UNL     1     -45.927  31.940  26.080  1.00  0.00     0.065 H 
ATOM     13  H   UNL     1     -49.867  33.397  26.013  1.00  0.00     0.166 HD
ATOM     14  H   UNL     1     -49.505  35.987  27.014  1.00  0.00     0.065 H 
ENDROOT
BRANCH   1  15
ATOM     15  C   UNL     1     -47.815  37.916  27.970  1.00  0.00     0.043 C 
ATOM     16  H   UNL     1     -48.084  37.904  29.034  1.00  0.00     0.054 H 
ATOM     17  H   UNL     1     -48.687  38.303  27.429  1.00  0.00     0.054 H 
BRANCH  15  18
ATOM     18  N   UNL     1     -46.719  38.825  27.769  1.00  0.00    -0.347 N 
ATOM     19  O   UNL     1     -47.831  40.228  26.331  1.00  0.00    -0.268 OA
ATOM     20  C   UNL     1     -46.807  39.896  26.916  1.00  0.00     0.270 C 
ATOM     21  H   UNL     1     -45.797  38.598  28.130  1.00  0.00     0.164 HD
BRANCH  20  22
ATOM     22  C   UNL     1     -45.492  40.622  26.764  1.00  0.00     0.136 A 
ATOM     23  C   UNL     1     -44.589  40.423  27.726  1.00  0.00     0.035 A 
ATOM     24  N   UNL     1     -45.306  41.432  25.667  1.00  0.00    -0.225 NA
ATOM     25  C   UNL     1     -43.296  41.110  27.619  1.00  0.00     0.258 A 
ATOM     26  H   UNL     1     -44.748  39.785  28.586  1.00  0.00     0.071 H 
ATOM     27  C   UNL     1     -44.162  42.037  25.575  1.00  0.00     0.140 A 
ATOM     28  O   UNL     1     -42.456  40.932  28.499  1.00  0.00    -0.269 OA
ATOM     29  N   UNL     1     -43.133  41.919  26.503  1.00  0.00    -0.268 N 
ATOM     30  C   UNL     1     -43.916  42.924  24.402  1.00  0.00    -0.019 A 
ATOM     31  C   UNL     1     -41.935  42.604  26.332  1.00  0.00     0.014 A 
ATOM     32  C   UNL     1     -42.746  43.562  24.282  1.00  0.00    -0.057 A 
ATOM     33  H   UNL     1     -44.711  43.022  23.675  1.00  0.00     0.066 H 
ATOM     34  C   UNL     1     -41.720  43.399  25.277  1.00  0.00    -0.045 A 
ATOM     35  H   UNL     1     -41.173  42.466  27.097  1.00  0.00     0.082 H 
ATOM     36  H   UNL     1     -42.548  44.212  23.435  1.00  0.00     0.062 H 
ATOM     37  H   UNL     1     -40.781  43.929  25.153  1.00  0.00     0.064 H 
ENDBRANCH  20  22
ENDBRANCH  15  18
ENDBRANCH   1  15
BRANCH   6  38
ATOM     38  C   UNL     1     -48.660  30.979  25.340  1.00  0.00     0.039 C 
ATOM     39  H   UNL     1     -47.923  30.185  25.520  1.00  0.00     0.050 H 
ATOM     40  H   UNL     1     -49.566  30.697  25.892  1.00  0.00     0.050 H 
BRANCH  38  41
ATOM     41  N   UNL     1     -48.923  31.080  23.907  1.00  0.00    -0.297 NA
ATOM     42  C   UNL     1     -50.323  31.366  23.581  1.00  0.00    -0.001 C 
ATOM     43  C   UNL     1     -48.596  29.846  23.193  1.00  0.00     0.004 C 
ATOM     44  C   UNL     1     -50.519  30.824  22.161  1.00  0.00    -0.033 C 
ATOM     45  H   UNL     1     -51.018  30.854  24.258  1.00  0.00     0.043 H 
ATOM     46  H   UNL     1     -50.532  32.439  23.621  1.00  0.00     0.043 H 
ATOM     47  C   UNL     1     -49.198  30.114  21.819  1.00  0.00    -0.016 C 
ATOM     48  H   UNL     1     -47.515  29.676  23.151  1.00  0.00     0.044 H 
ATOM     49  H   UNL     1     -49.069  28.971  23.662  1.00  0.00     0.044 H 
ATOM     50  H   UNL     1     -51.362  30.122  22.156  1.00  0.00     0.029 H 
ATOM     51  H   UNL     1     -50.755  31.633  21.462  1.00  0.00     0.029 H 
ATOM     52  C   UNL     1     -48.306  30.992  20.923  1.00  0.00    -0.046 C 
ATOM     53  C   UNL     1     -49.372  28.868  20.956  1.00  0.00    -0.046 C 
ATOM     54  C   UNL     1     -48.801  30.734  19.501  1.00  0.00    -0.053 C 
ATOM     55  H   UNL     1     -47.258  30.675  20.999  1.00  0.00     0.027 H 
ATOM     56  H   UNL     1     -48.343  32.057  21.176  1.00  0.00     0.027 H 
ATOM     57  C   UNL     1     -49.570  29.413  19.547  1.00  0.00    -0.053 C 
ATOM     58  H   UNL     1     -48.465  28.253  20.987  1.00  0.00     0.027 H 
ATOM     59  H   UNL     1     -50.210  28.237  21.269  1.00  0.00     0.027 H 
ATOM     60  H   UNL     1     -49.462  31.541  19.166  1.00  0.00     0.027 H 
ATOM     61  H   UNL     1     -47.962  30.687  18.798  1.00  0.00     0.027 H 
ATOM     62  H   UNL     1     -50.634  29.597  19.357  1.00  0.00     0.027 H 
ATOM     63  H   UNL     1     -49.218  28.708  18.787  1.00  0.00     0.027 H 
ENDBRANCH  38  41
ENDBRANCH   6  38
TORSDOF 5
ENDMDL
MODEL 7
REMARK VINA RESULT:     -10.4      2.337      4.283
REMARK SMILES O=C(NCc1ccc2cc(CN3CCC4(CCCC4)C3)[nH]c2c1)c1cc(=O)n2ccccc2n1
REMARK SMILES IDX 5 1 6 2 7 3 8 4 9 5 10 6 21 7 22 8 23 9 4 15 3 18 1 19 2 20
REMARK SMILES IDX 24 22 25 23 34 24 26 25 33 27 27 28 28 29 32 30 29 31 31 32
REMARK SMILES IDX 30 34 11 38 12 41 13 42 20 43 14 44 15 47 16 52 19 53 17 54
REMARK SMILES IDX 18 57
REMARK H PARENT 6 10 7 11 9 12 21 13 23 14 4 16 4 17 3 21 25 26 32 33 29 35
REMARK H PARENT 31 36 30 37 11 39 11 40 13 45 13 46 20 48 20 49 14 50 14 51
REMARK H PARENT 16 55 16 56 19 58 19 59 17 60 17 61 18 62 18 63
REMARK Flexibility Score: inf
ROOT
ATOM      1  C   UNL     1     -46.031  37.471  28.248  1.00  0.00    -0.027 A 
ATOM      2  C   UNL     1     -47.407  37.600  28.020  1.00  0.00    -0.057 A 
ATOM      3  C   UNL     1     -48.123  36.609  27.336  1.00  0.00    -0.052 A 
ATOM      4  C   UNL     1     -47.445  35.470  26.863  1.00  0.00    -0.000 A 
ATOM      5  C   UNL     1     -47.844  34.307  26.151  1.00  0.00    -0.032 A 
ATOM      6  C   UNL     1     -46.727  33.516  25.958  1.00  0.00     0.030 A 
ATOM      7  N   UNL     1     -45.665  34.172  26.534  1.00  0.00    -0.357 N 
ATOM      8  C   UNL     1     -46.075  35.363  27.090  1.00  0.00     0.046 A 
ATOM      9  C   UNL     1     -45.342  36.342  27.771  1.00  0.00    -0.033 A 
ATOM     10  H   UNL     1     -47.940  38.479  28.376  1.00  0.00     0.063 H 
ATOM     11  H   UNL     1     -49.191  36.720  27.171  1.00  0.00     0.063 H 
ATOM     12  H   UNL     1     -48.844  34.061  25.821  1.00  0.00     0.065 H 
ATOM     13  H   UNL     1     -44.714  33.831  26.560  1.00  0.00     0.166 HD
ATOM     14  H   UNL     1     -44.272  36.235  27.926  1.00  0.00     0.065 H 
ENDROOT
BRANCH   1  15
ATOM     15  C   UNL     1     -45.275  38.563  28.958  1.00  0.00     0.043 C 
ATOM     16  H   UNL     1     -44.367  38.165  29.428  1.00  0.00     0.054 H 
ATOM     17  H   UNL     1     -45.880  39.001  29.761  1.00  0.00     0.054 H 
BRANCH  15  18
ATOM     18  N   UNL     1     -44.913  39.612  28.042  1.00  0.00    -0.347 N 
ATOM     19  O   UNL     1     -43.038  40.289  29.182  1.00  0.00    -0.268 OA
ATOM     20  C   UNL     1     -43.833  40.429  28.260  1.00  0.00     0.270 C 
ATOM     21  H   UNL     1     -45.548  39.876  27.295  1.00  0.00     0.164 HD
BRANCH  20  22
ATOM     22  C   UNL     1     -43.734  41.538  27.240  1.00  0.00     0.136 A 
ATOM     23  C   UNL     1     -42.504  41.879  26.851  1.00  0.00     0.035 A 
ATOM     24  N   UNL     1     -44.893  42.121  26.782  1.00  0.00    -0.225 NA
ATOM     25  C   UNL     1     -42.361  42.953  25.860  1.00  0.00     0.258 A 
ATOM     26  H   UNL     1     -41.599  41.413  27.220  1.00  0.00     0.071 H 
ATOM     27  C   UNL     1     -44.763  43.070  25.906  1.00  0.00     0.140 A 
ATOM     28  O   UNL     1     -41.232  43.273  25.494  1.00  0.00    -0.269 OA
ATOM     29  N   UNL     1     -43.545  43.524  25.414  1.00  0.00    -0.268 N 
ATOM     30  C   UNL     1     -45.992  43.730  25.381  1.00  0.00    -0.019 A 
ATOM     31  C   UNL     1     -43.491  44.549  24.475  1.00  0.00     0.014 A 
ATOM     32  C   UNL     1     -45.889  44.712  24.478  1.00  0.00    -0.057 A 
ATOM     33  H   UNL     1     -46.946  43.383  25.759  1.00  0.00     0.066 H 
ATOM     34  C   UNL     1     -44.598  45.138  24.008  1.00  0.00    -0.045 A 
ATOM     35  H   UNL     1     -42.504  44.854  24.133  1.00  0.00     0.082 H 
ATOM     36  H   UNL     1     -46.772  45.205  24.084  1.00  0.00     0.062 H 
ATOM     37  H   UNL     1     -44.544  45.937  23.275  1.00  0.00     0.064 H 
ENDBRANCH  20  22
ENDBRANCH  15  18
ENDBRANCH   1  15
BRANCH   6  38
ATOM     38  C   UNL     1     -46.570  32.197  25.277  1.00  0.00     0.039 C 
ATOM     39  H   UNL     1     -45.831  32.329  24.476  1.00  0.00     0.050 H 
ATOM     40  H   UNL     1     -46.154  31.450  25.967  1.00  0.00     0.050 H 
BRANCH  38  41
ATOM     41  N   UNL     1     -47.833  31.742  24.703  1.00  0.00    -0.297 NA
ATOM     42  C   UNL     1     -48.577  30.818  25.563  1.00  0.00    -0.001 C 
ATOM     43  C   UNL     1     -47.645  31.036  23.436  1.00  0.00     0.004 C 
ATOM     44  C   UNL     1     -49.458  30.007  24.608  1.00  0.00    -0.033 C 
ATOM     45  H   UNL     1     -47.912  30.134  26.106  1.00  0.00     0.043 H 
ATOM     46  H   UNL     1     -49.187  31.357  26.295  1.00  0.00     0.043 H 
ATOM     47  C   UNL     1     -49.032  30.451  23.199  1.00  0.00    -0.016 C 
ATOM     48  H   UNL     1     -47.335  31.715  22.635  1.00  0.00     0.044 H 
ATOM     49  H   UNL     1     -46.896  30.237  23.527  1.00  0.00     0.044 H 
ATOM     50  H   UNL     1     -49.269  28.937  24.764  1.00  0.00     0.029 H 
ATOM     51  H   UNL     1     -50.520  30.189  24.804  1.00  0.00     0.029 H 
ATOM     52  C   UNL     1     -50.028  31.464  22.606  1.00  0.00    -0.046 C 
ATOM     53  C   UNL     1     -49.073  29.333  22.161  1.00  0.00    -0.046 C 
ATOM     54  C   UNL     1     -51.138  30.611  21.991  1.00  0.00    -0.053 C 
ATOM     55  H   UNL     1     -49.548  32.051  21.812  1.00  0.00     0.027 H 
ATOM     56  H   UNL     1     -50.424  32.172  23.342  1.00  0.00     0.027 H 
ATOM     57  C   UNL     1     -50.548  29.215  21.796  1.00  0.00    -0.053 C 
ATOM     58  H   UNL     1     -48.497  29.618  21.271  1.00  0.00     0.027 H 
ATOM     59  H   UNL     1     -48.667  28.385  22.528  1.00  0.00     0.027 H 
ATOM     60  H   UNL     1     -52.006  30.562  22.658  1.00  0.00     0.027 H 
ATOM     61  H   UNL     1     -51.479  31.041  21.043  1.00  0.00     0.027 H 
ATOM     62  H   UNL     1     -51.048  28.505  22.464  1.00  0.00     0.027 H 
ATOM     63  H   UNL     1     -50.684  28.853  20.772  1.00  0.00     0.027 H 
ENDBRANCH  38  41
ENDBRANCH   6  38
TORSDOF 5
ENDMDL
