MODEL 1
REMARK VINA RESULT:     -10.3      0.000      0.000
REMARK SMILES Nc1cc(OCc2cncc(-n3cc([C@@H]4CCCO4)c4c(N)ncnc43)c2)ccc1C(=O)N1CCNCC1
REMARK SMILES IDX 6 1 5 4 4 5 2 6 3 7 30 8 29 10 28 11 1 14 31 17 32 18 33 19
REMARK SMILES IDX 34 20 38 21 35 22 37 25 36 28 7 34 8 35 27 36 9 37 11 39
REMARK SMILES IDX 10 41 12 43 13 44 26 45 14 46 20 48 25 49 21 50 24 51 23 52
REMARK SMILES IDX 15 54 16 55 19 56 17 58 18 61 22 66
REMARK H PARENT 6 2 6 3 3 9 29 12 28 13 1 15 1 16 34 23 34 24 38 26 38 27
REMARK H PARENT 35 29 35 30 37 31 37 32 36 33 8 38 27 40 10 42 13 47 24 53
REMARK H PARENT 15 57 16 59 16 60 17 62 17 63 18 64 18 65 22 67 22 68
REMARK Flexibility Score: inf
ROOT
ATOM      1  C   UNL     1     -47.329  34.873  27.274  1.00  0.00     0.115 C 
ATOM      2  H   UNL     1     -48.302  34.412  27.481  1.00  0.00     0.076 H 
ATOM      3  H   UNL     1     -46.622  34.409  27.973  1.00  0.00     0.076 H 
ENDROOT
BRANCH   1   4
ATOM      4  O   UNL     1     -47.000  34.540  25.924  1.00  0.00    -0.489 OA
BRANCH   4   5
ATOM      5  C   UNL     1     -47.328  33.302  25.447  1.00  0.00     0.121 A 
ATOM      6  C   UNL     1     -46.512  31.440  24.082  1.00  0.00     0.048 A 
ATOM      7  C   UNL     1     -46.352  32.723  24.625  1.00  0.00     0.004 A 
ATOM      8  C   UNL     1     -47.740  30.790  24.288  1.00  0.00     0.063 A 
ATOM      9  H   UNL     1     -45.445  33.286  24.414  1.00  0.00     0.068 H 
ATOM     10  C   UNL     1     -48.709  31.346  25.135  1.00  0.00    -0.044 A 
ATOM     11  C   UNL     1     -48.502  32.600  25.715  1.00  0.00    -0.019 A 
ATOM     12  H   UNL     1     -49.627  30.800  25.344  1.00  0.00     0.063 H 
ATOM     13  H   UNL     1     -49.273  32.989  26.370  1.00  0.00     0.066 H 
BRANCH   6  14
ATOM     14  N   UNL     1     -45.543  30.953  23.181  1.00  0.00    -0.398 N 
ATOM     15  H   UNL     1     -44.698  31.533  23.201  1.00  0.00     0.156 HD
ATOM     16  H   UNL     1     -45.893  30.851  22.233  1.00  0.00     0.156 HD
ENDBRANCH   6  14
BRANCH   8  17
ATOM     17  C   UNL     1     -47.993  29.457  23.690  1.00  0.00     0.256 C 
ATOM     18  O   UNL     1     -47.348  28.502  24.122  1.00  0.00    -0.269 OA
ATOM     19  N   UNL     1     -48.966  29.342  22.693  1.00  0.00    -0.336 N 
ATOM     20  C   UNL     1     -49.217  30.429  21.735  1.00  0.00     0.033 C 
ATOM     21  C   UNL     1     -49.171  28.003  22.135  1.00  0.00     0.033 C 
ATOM     22  C   UNL     1     -50.559  30.255  21.000  1.00  0.00     0.013 C 
ATOM     23  H   UNL     1     -48.387  30.420  21.016  1.00  0.00     0.051 H 
ATOM     24  H   UNL     1     -49.201  31.403  22.227  1.00  0.00     0.051 H 
ATOM     25  C   UNL     1     -50.511  27.880  21.390  1.00  0.00     0.013 C 
ATOM     26  H   UNL     1     -48.336  27.796  21.456  1.00  0.00     0.051 H 
ATOM     27  H   UNL     1     -49.134  27.261  22.941  1.00  0.00     0.051 H 
ATOM     28  N   UNL     1     -50.703  28.932  20.376  1.00  0.00    -0.313 NA
ATOM     29  H   UNL     1     -51.384  30.413  21.707  1.00  0.00     0.045 H 
ATOM     30  H   UNL     1     -50.646  31.024  20.226  1.00  0.00     0.045 H 
ATOM     31  H   UNL     1     -51.336  27.924  22.111  1.00  0.00     0.045 H 
ATOM     32  H   UNL     1     -50.562  26.902  20.901  1.00  0.00     0.045 H 
ATOM     33  H   UNL     1     -51.638  28.845  19.977  1.00  0.00     0.122 HD
ENDBRANCH   8  17
ENDBRANCH   4   5
ENDBRANCH   1   4
BRANCH   1  34
ATOM     34  C   UNL     1     -47.474  36.355  27.504  1.00  0.00     0.010 A 
ATOM     35  C   UNL     1     -48.722  36.904  27.769  1.00  0.00     0.034 A 
ATOM     36  C   UNL     1     -46.386  37.235  27.412  1.00  0.00    -0.028 A 
ATOM     37  N   UNL     1     -48.938  38.219  27.972  1.00  0.00    -0.262 NA
ATOM     38  H   UNL     1     -49.613  36.285  27.830  1.00  0.00     0.084 H 
ATOM     39  C   UNL     1     -46.563  38.608  27.613  1.00  0.00     0.066 A 
ATOM     40  H   UNL     1     -45.408  36.809  27.209  1.00  0.00     0.065 H 
ATOM     41  C   UNL     1     -47.858  39.036  27.893  1.00  0.00     0.051 A 
ATOM     42  H   UNL     1     -48.118  40.078  28.046  1.00  0.00     0.086 H 
BRANCH  39  43
ATOM     43  N   UNL     1     -45.480  39.541  27.543  1.00  0.00    -0.299 N 
ATOM     44  C   UNL     1     -45.295  40.471  26.529  1.00  0.00     0.018 A 
ATOM     45  C   UNL     1     -44.427  39.702  28.443  1.00  0.00     0.150 A 
ATOM     46  C   UNL     1     -44.158  41.225  26.764  1.00  0.00     0.012 A 
ATOM     47  H   UNL     1     -46.006  40.557  25.720  1.00  0.00     0.083 H 
ATOM     48  C   UNL     1     -43.602  40.724  27.983  1.00  0.00     0.067 A 
ATOM     49  N   UNL     1     -44.207  38.983  29.563  1.00  0.00    -0.218 NA
ATOM     50  C   UNL     1     -42.468  41.026  28.758  1.00  0.00     0.136 A 
ATOM     51  C   UNL     1     -43.104  39.365  30.221  1.00  0.00     0.120 A 
ATOM     52  N   UNL     1     -42.234  40.329  29.883  1.00  0.00    -0.219 NA
ATOM     53  H   UNL     1     -42.884  38.827  31.137  1.00  0.00     0.106 H 
BRANCH  46  54
ATOM     54  C   UNL     1     -43.593  42.362  25.951  1.00  0.00     0.085 C 
ATOM     55  C   UNL     1     -43.840  43.764  26.493  1.00  0.00    -0.020 C 
ATOM     56  O   UNL     1     -44.176  42.356  24.626  1.00  0.00    -0.373 OA
ATOM     57  H   UNL     1     -42.514  42.195  25.844  1.00  0.00     0.066 H 
ATOM     58  C   UNL     1     -45.153  44.137  25.851  1.00  0.00    -0.027 C 
ATOM     59  H   UNL     1     -43.844  43.852  27.582  1.00  0.00     0.030 H 
ATOM     60  H   UNL     1     -43.063  44.439  26.114  1.00  0.00     0.030 H 
ATOM     61  C   UNL     1     -45.016  43.510  24.482  1.00  0.00     0.048 C 
ATOM     62  H   UNL     1     -45.331  45.215  25.808  1.00  0.00     0.029 H 
ATOM     63  H   UNL     1     -45.986  43.676  26.395  1.00  0.00     0.029 H 
ATOM     64  H   UNL     1     -45.978  43.213  24.057  1.00  0.00     0.057 H 
ATOM     65  H   UNL     1     -44.523  44.193  23.782  1.00  0.00     0.057 H 
ENDBRANCH  46  54
BRANCH  50  66
ATOM     66  N   UNL     1     -41.536  41.999  28.413  1.00  0.00    -0.383 N 
ATOM     67  H   UNL     1     -40.580  41.711  28.621  1.00  0.00     0.158 HD
ATOM     68  H   UNL     1     -41.811  42.894  28.797  1.00  0.00     0.158 HD
ENDBRANCH  50  66
ENDBRANCH  39  43
ENDBRANCH   1  34
TORSDOF 8
ENDMDL
MODEL 2
REMARK VINA RESULT:      -9.9      2.514     12.337
REMARK SMILES Nc1cc(OCc2cncc(-n3cc([C@@H]4CCCO4)c4c(N)ncnc43)c2)ccc1C(=O)N1CCNCC1
REMARK SMILES IDX 6 1 5 4 4 5 2 6 3 7 30 8 29 10 28 11 1 14 31 17 32 18 33 19
REMARK SMILES IDX 34 20 38 21 35 22 37 25 36 28 7 34 8 35 27 36 9 37 11 39
REMARK SMILES IDX 10 41 12 43 13 44 26 45 14 46 20 48 25 49 21 50 24 51 23 52
REMARK SMILES IDX 15 54 16 55 19 56 17 58 18 61 22 66
REMARK H PARENT 6 2 6 3 3 9 29 12 28 13 1 15 1 16 34 23 34 24 38 26 38 27
REMARK H PARENT 35 29 35 30 37 31 37 32 36 33 8 38 27 40 10 42 13 47 24 53
REMARK H PARENT 15 57 16 59 16 60 17 62 17 63 18 64 18 65 22 67 22 68
REMARK Flexibility Score: inf
ROOT
ATOM      1  C   UNL     1     -48.536  35.215  27.166  1.00  0.00     0.115 C 
ATOM      2  H   UNL     1     -49.564  34.923  27.413  1.00  0.00     0.076 H 
ATOM      3  H   UNL     1     -48.612  36.184  26.658  1.00  0.00     0.076 H 
ENDROOT
BRANCH   1   4
ATOM      4  O   UNL     1     -47.840  35.346  28.407  1.00  0.00    -0.489 OA
BRANCH   4   5
ATOM      5  C   UNL     1     -46.866  36.298  28.525  1.00  0.00     0.121 A 
ATOM      6  C   UNL     1     -45.635  37.662  30.143  1.00  0.00     0.048 A 
ATOM      7  C   UNL     1     -46.627  36.719  29.841  1.00  0.00     0.004 A 
ATOM      8  C   UNL     1     -44.958  38.269  29.073  1.00  0.00     0.063 A 
ATOM      9  H   UNL     1     -47.225  36.292  30.642  1.00  0.00     0.068 H 
ATOM     10  C   UNL     1     -45.167  37.832  27.757  1.00  0.00    -0.044 A 
ATOM     11  C   UNL     1     -46.118  36.846  27.485  1.00  0.00    -0.019 A 
ATOM     12  H   UNL     1     -44.585  38.260  26.942  1.00  0.00     0.063 H 
ATOM     13  H   UNL     1     -46.241  36.531  26.454  1.00  0.00     0.066 H 
BRANCH   6  14
ATOM     14  N   UNL     1     -45.511  38.122  31.470  1.00  0.00    -0.398 N 
ATOM     15  H   UNL     1     -45.994  37.496  32.123  1.00  0.00     0.156 HD
ATOM     16  H   UNL     1     -45.817  39.082  31.593  1.00  0.00     0.156 HD
ENDBRANCH   6  14
BRANCH   8  17
ATOM     17  C   UNL     1     -43.940  39.316  29.325  1.00  0.00     0.256 C 
ATOM     18  O   UNL     1     -43.341  39.289  30.399  1.00  0.00    -0.269 OA
ATOM     19  N   UNL     1     -43.687  40.262  28.326  1.00  0.00    -0.336 N 
ATOM     20  C   UNL     1     -44.753  40.737  27.431  1.00  0.00     0.033 C 
ATOM     21  C   UNL     1     -42.675  41.276  28.631  1.00  0.00     0.033 C 
ATOM     22  C   UNL     1     -44.189  41.453  26.189  1.00  0.00     0.013 C 
ATOM     23  H   UNL     1     -45.378  41.426  28.014  1.00  0.00     0.051 H 
ATOM     24  H   UNL     1     -45.398  39.917  27.110  1.00  0.00     0.051 H 
ATOM     25  C   UNL     1     -42.158  41.982  27.367  1.00  0.00     0.013 C 
ATOM     26  H   UNL     1     -43.129  42.002  29.316  1.00  0.00     0.051 H 
ATOM     27  H   UNL     1     -41.834  40.808  29.156  1.00  0.00     0.051 H 
ATOM     28  N   UNL     1     -43.240  42.525  26.527  1.00  0.00    -0.313 NA
ATOM     29  H   UNL     1     -43.691  40.721  25.542  1.00  0.00     0.045 H 
ATOM     30  H   UNL     1     -45.018  41.881  25.616  1.00  0.00     0.045 H 
ATOM     31  H   UNL     1     -41.563  41.279  26.772  1.00  0.00     0.045 H 
ATOM     32  H   UNL     1     -41.492  42.801  27.659  1.00  0.00     0.045 H 
ATOM     33  H   UNL     1     -42.840  42.905  25.670  1.00  0.00     0.122 HD
ENDBRANCH   8  17
ENDBRANCH   4   5
ENDBRANCH   1   4
BRANCH   1  34
ATOM     34  C   UNL     1     -47.965  34.143  26.274  1.00  0.00     0.010 A 
ATOM     35  C   UNL     1     -46.826  34.391  25.520  1.00  0.00     0.034 A 
ATOM     36  C   UNL     1     -48.575  32.888  26.131  1.00  0.00    -0.028 A 
ATOM     37  N   UNL     1     -46.261  33.492  24.690  1.00  0.00    -0.262 NA
ATOM     38  H   UNL     1     -46.315  35.350  25.563  1.00  0.00     0.084 H 
ATOM     39  C   UNL     1     -48.026  31.923  25.279  1.00  0.00     0.066 A 
ATOM     40  H   UNL     1     -49.463  32.689  26.723  1.00  0.00     0.065 H 
ATOM     41  C   UNL     1     -46.869  32.283  24.592  1.00  0.00     0.051 A 
ATOM     42  H   UNL     1     -46.369  31.625  23.889  1.00  0.00     0.086 H 
BRANCH  39  43
ATOM     43  N   UNL     1     -48.606  30.625  25.113  1.00  0.00    -0.299 N 
ATOM     44  C   UNL     1     -48.290  29.509  25.876  1.00  0.00     0.018 A 
ATOM     45  C   UNL     1     -49.569  30.229  24.186  1.00  0.00     0.150 A 
ATOM     46  C   UNL     1     -49.033  28.416  25.466  1.00  0.00     0.012 A 
ATOM     47  H   UNL     1     -47.579  29.575  26.686  1.00  0.00     0.083 H 
ATOM     48  C   UNL     1     -49.841  28.878  24.380  1.00  0.00     0.067 A 
ATOM     49  N   UNL     1     -50.135  30.998  23.233  1.00  0.00    -0.218 NA
ATOM     50  C   UNL     1     -50.787  28.289  23.522  1.00  0.00     0.136 A 
ATOM     51  C   UNL     1     -51.023  30.331  22.485  1.00  0.00     0.120 A 
ATOM     52  N   UNL     1     -51.372  29.038  22.572  1.00  0.00    -0.219 NA
ATOM     53  H   UNL     1     -51.519  30.906  21.708  1.00  0.00     0.106 H 
BRANCH  46  54
ATOM     54  C   UNL     1     -49.044  27.016  26.026  1.00  0.00     0.085 C 
ATOM     55  C   UNL     1     -48.177  26.777  27.256  1.00  0.00    -0.020 C 
ATOM     56  O   UNL     1     -48.561  26.084  25.030  1.00  0.00    -0.373 OA
ATOM     57  H   UNL     1     -50.085  26.754  26.254  1.00  0.00     0.066 H 
ATOM     58  C   UNL     1     -46.854  26.378  26.651  1.00  0.00    -0.027 C 
ATOM     59  H   UNL     1     -48.107  27.617  27.950  1.00  0.00     0.030 H 
ATOM     60  H   UNL     1     -48.576  25.922  27.817  1.00  0.00     0.030 H 
ATOM     61  C   UNL     1     -47.295  25.562  25.456  1.00  0.00     0.048 C 
ATOM     62  H   UNL     1     -46.210  25.817  27.333  1.00  0.00     0.029 H 
ATOM     63  H   UNL     1     -46.306  27.267  26.319  1.00  0.00     0.029 H 
ATOM     64  H   UNL     1     -46.581  25.609  24.630  1.00  0.00     0.057 H 
ATOM     65  H   UNL     1     -47.444  24.512  25.728  1.00  0.00     0.057 H 
ENDBRANCH  46  54
BRANCH  50  66
ATOM     66  N   UNL     1     -51.142  26.946  23.574  1.00  0.00    -0.383 N 
ATOM     67  H   UNL     1     -52.106  26.811  23.881  1.00  0.00     0.158 HD
ATOM     68  H   UNL     1     -50.447  26.422  24.091  1.00  0.00     0.158 HD
ENDBRANCH  50  66
ENDBRANCH  39  43
ENDBRANCH   1  34
TORSDOF 8
ENDMDL
MODEL 3
REMARK VINA RESULT:      -9.9      1.500      2.097
REMARK SMILES Nc1cc(OCc2cncc(-n3cc([C@@H]4CCCO4)c4c(N)ncnc43)c2)ccc1C(=O)N1CCNCC1
REMARK SMILES IDX 6 1 5 4 4 5 2 6 3 7 30 8 29 10 28 11 1 14 31 17 32 18 33 19
REMARK SMILES IDX 34 20 38 21 35 22 37 25 36 28 7 34 8 35 27 36 9 37 11 39
REMARK SMILES IDX 10 41 12 43 13 44 26 45 14 46 20 48 25 49 21 50 24 51 23 52
REMARK SMILES IDX 15 54 16 55 19 56 17 58 18 61 22 66
REMARK H PARENT 6 2 6 3 3 9 29 12 28 13 1 15 1 16 34 23 34 24 38 26 38 27
REMARK H PARENT 35 29 35 30 37 31 37 32 36 33 8 38 27 40 10 42 13 47 24 53
REMARK H PARENT 15 57 16 59 16 60 17 62 17 63 18 64 18 65 22 67 22 68
REMARK Flexibility Score: inf
ROOT
ATOM      1  C   UNL     1     -46.553  34.803  27.219  1.00  0.00     0.115 C 
ATOM      2  H   UNL     1     -47.358  34.216  27.678  1.00  0.00     0.076 H 
ATOM      3  H   UNL     1     -45.633  34.508  27.738  1.00  0.00     0.076 H 
ENDROOT
BRANCH   1   4
ATOM      4  O   UNL     1     -46.505  34.420  25.843  1.00  0.00    -0.489 OA
BRANCH   4   5
ATOM      5  C   UNL     1     -47.090  33.246  25.459  1.00  0.00     0.121 A 
ATOM      6  C   UNL     1     -46.723  31.193  24.177  1.00  0.00     0.048 A 
ATOM      7  C   UNL     1     -46.290  32.446  24.630  1.00  0.00     0.004 A 
ATOM      8  C   UNL     1     -48.038  30.803  24.480  1.00  0.00     0.063 A 
ATOM      9  H   UNL     1     -45.307  32.812  24.343  1.00  0.00     0.068 H 
ATOM     10  C   UNL     1     -48.833  31.579  25.335  1.00  0.00    -0.044 A 
ATOM     11  C   UNL     1     -48.358  32.798  25.825  1.00  0.00    -0.019 A 
ATOM     12  H   UNL     1     -49.824  31.232  25.620  1.00  0.00     0.063 H 
ATOM     13  H   UNL     1     -49.002  33.363  26.490  1.00  0.00     0.066 H 
BRANCH   6  14
ATOM     14  N   UNL     1     -45.918  30.481  23.263  1.00  0.00    -0.398 N 
ATOM     15  H   UNL     1     -44.924  30.592  23.485  1.00  0.00     0.156 HD
ATOM     16  H   UNL     1     -46.103  30.721  22.294  1.00  0.00     0.156 HD
ENDBRANCH   6  14
BRANCH   8  17
ATOM     17  C   UNL     1     -48.573  29.514  23.979  1.00  0.00     0.256 C 
ATOM     18  O   UNL     1     -48.970  29.471  22.816  1.00  0.00    -0.269 OA
ATOM     19  N   UNL     1     -48.575  28.409  24.836  1.00  0.00    -0.336 N 
ATOM     20  C   UNL     1     -48.776  28.560  26.285  1.00  0.00     0.033 C 
ATOM     21  C   UNL     1     -49.120  27.164  24.290  1.00  0.00     0.033 C 
ATOM     22  C   UNL     1     -48.356  27.299  27.062  1.00  0.00     0.013 C 
ATOM     23  H   UNL     1     -49.843  28.764  26.441  1.00  0.00     0.051 H 
ATOM     24  H   UNL     1     -48.228  29.421  26.674  1.00  0.00     0.051 H 
ATOM     25  C   UNL     1     -48.697  25.933  25.110  1.00  0.00     0.013 C 
ATOM     26  H   UNL     1     -50.212  27.257  24.278  1.00  0.00     0.051 H 
ATOM     27  H   UNL     1     -48.787  27.042  23.253  1.00  0.00     0.051 H 
ATOM     28  N   UNL     1     -48.984  26.073  26.548  1.00  0.00    -0.313 NA
ATOM     29  H   UNL     1     -47.265  27.191  27.018  1.00  0.00     0.045 H 
ATOM     30  H   UNL     1     -48.627  27.421  28.116  1.00  0.00     0.045 H 
ATOM     31  H   UNL     1     -47.623  25.757  24.976  1.00  0.00     0.045 H 
ATOM     32  H   UNL     1     -49.219  25.050  24.728  1.00  0.00     0.045 H 
ATOM     33  H   UNL     1     -48.608  25.266  27.045  1.00  0.00     0.122 HD
ENDBRANCH   8  17
ENDBRANCH   4   5
ENDBRANCH   1   4
BRANCH   1  34
ATOM     34  C   UNL     1     -46.886  36.258  27.420  1.00  0.00     0.010 A 
ATOM     35  C   UNL     1     -48.201  36.655  27.625  1.00  0.00     0.034 A 
ATOM     36  C   UNL     1     -45.909  37.263  27.361  1.00  0.00    -0.028 A 
ATOM     37  N   UNL     1     -48.583  37.936  27.801  1.00  0.00    -0.262 NA
ATOM     38  H   UNL     1     -49.013  35.933  27.658  1.00  0.00     0.084 H 
ATOM     39  C   UNL     1     -46.259  38.606  27.536  1.00  0.00     0.066 A 
ATOM     40  H   UNL     1     -44.879  36.956  27.206  1.00  0.00     0.065 H 
ATOM     41  C   UNL     1     -47.607  38.877  27.755  1.00  0.00     0.051 A 
ATOM     42  H   UNL     1     -47.996  39.881  27.882  1.00  0.00     0.086 H 
BRANCH  39  43
ATOM     43  N   UNL     1     -45.293  39.663  27.497  1.00  0.00    -0.299 N 
ATOM     44  C   UNL     1     -45.242  40.659  26.531  1.00  0.00     0.018 A 
ATOM     45  C   UNL     1     -44.246  39.900  28.387  1.00  0.00     0.150 A 
ATOM     46  C   UNL     1     -44.196  41.528  26.787  1.00  0.00     0.012 A 
ATOM     47  H   UNL     1     -45.977  40.701  25.741  1.00  0.00     0.083 H 
ATOM     48  C   UNL     1     -43.557  41.034  27.967  1.00  0.00     0.067 A 
ATOM     49  N   UNL     1     -43.917  39.155  29.462  1.00  0.00    -0.218 NA
ATOM     50  C   UNL     1     -42.448  41.427  28.738  1.00  0.00     0.136 A 
ATOM     51  C   UNL     1     -42.853  39.631  30.120  1.00  0.00     0.120 A 
ATOM     52  N   UNL     1     -42.109  40.706  29.820  1.00  0.00    -0.219 NA
ATOM     53  H   UNL     1     -42.550  39.076  31.003  1.00  0.00     0.106 H 
BRANCH  46  54
ATOM     54  C   UNL     1     -43.787  42.764  26.027  1.00  0.00     0.085 C 
ATOM     55  C   UNL     1     -44.172  44.098  26.654  1.00  0.00    -0.020 C 
ATOM     56  O   UNL     1     -44.406  42.764  24.718  1.00  0.00    -0.373 OA
ATOM     57  H   UNL     1     -42.700  42.726  25.884  1.00  0.00     0.066 H 
ATOM     58  C   UNL     1     -45.538  44.354  26.066  1.00  0.00    -0.027 C 
ATOM     59  H   UNL     1     -44.152  44.126  27.746  1.00  0.00     0.030 H 
ATOM     60  H   UNL     1     -43.487  44.876  26.296  1.00  0.00     0.030 H 
ATOM     61  C   UNL     1     -45.373  43.822  24.661  1.00  0.00     0.048 C 
ATOM     62  H   UNL     1     -45.836  45.405  26.089  1.00  0.00     0.029 H 
ATOM     63  H   UNL     1     -46.296  43.773  26.603  1.00  0.00     0.029 H 
ATOM     64  H   UNL     1     -46.309  43.441  24.244  1.00  0.00     0.057 H 
ATOM     65  H   UNL     1     -44.981  44.593  23.989  1.00  0.00     0.057 H 
ENDBRANCH  46  54
BRANCH  50  66
ATOM     66  N   UNL     1     -41.645  42.520  28.430  1.00  0.00    -0.383 N 
ATOM     67  H   UNL     1     -41.445  43.097  29.248  1.00  0.00     0.158 HD
ATOM     68  H   UNL     1     -42.025  43.017  27.634  1.00  0.00     0.158 HD
ENDBRANCH  50  66
ENDBRANCH  39  43
ENDBRANCH   1  34
TORSDOF 8
ENDMDL
MODEL 4
REMARK VINA RESULT:      -9.5      1.959      3.081
REMARK SMILES Nc1cc(OCc2cncc(-n3cc([C@@H]4CCCO4)c4c(N)ncnc43)c2)ccc1C(=O)N1CCNCC1
REMARK SMILES IDX 6 1 5 4 4 5 2 6 3 7 30 8 29 10 28 11 1 14 31 17 32 18 33 19
REMARK SMILES IDX 34 20 38 21 35 22 37 25 36 28 7 34 8 35 27 36 9 37 11 39
REMARK SMILES IDX 10 41 12 43 13 44 26 45 14 46 20 48 25 49 21 50 24 51 23 52
REMARK SMILES IDX 15 54 16 55 19 56 17 58 18 61 22 66
REMARK H PARENT 6 2 6 3 3 9 29 12 28 13 1 15 1 16 34 23 34 24 38 26 38 27
REMARK H PARENT 35 29 35 30 37 31 37 32 36 33 8 38 27 40 10 42 13 47 24 53
REMARK H PARENT 15 57 16 59 16 60 17 62 17 63 18 64 18 65 22 67 22 68
REMARK Flexibility Score: inf
ROOT
ATOM      1  C   UNL     1     -47.296  35.779  26.598  1.00  0.00     0.115 C 
ATOM      2  H   UNL     1     -47.919  36.134  25.768  1.00  0.00     0.076 H 
ATOM      3  H   UNL     1     -47.990  35.364  27.339  1.00  0.00     0.076 H 
ENDROOT
BRANCH   1   4
ATOM      4  O   UNL     1     -46.452  34.757  26.064  1.00  0.00    -0.489 OA
BRANCH   4   5
ATOM      5  C   UNL     1     -47.017  33.588  25.632  1.00  0.00     0.121 A 
ATOM      6  C   UNL     1     -46.607  31.588  24.282  1.00  0.00     0.048 A 
ATOM      7  C   UNL     1     -46.197  32.830  24.784  1.00  0.00     0.004 A 
ATOM      8  C   UNL     1     -47.919  31.169  24.557  1.00  0.00     0.063 A 
ATOM      9  H   UNL     1     -45.216  33.220  24.521  1.00  0.00     0.068 H 
ATOM     10  C   UNL     1     -48.734  31.903  25.430  1.00  0.00    -0.044 A 
ATOM     11  C   UNL     1     -48.282  33.110  25.968  1.00  0.00    -0.019 A 
ATOM     12  H   UNL     1     -49.724  31.533  25.692  1.00  0.00     0.063 H 
ATOM     13  H   UNL     1     -48.941  33.642  26.646  1.00  0.00     0.066 H 
BRANCH   6  14
ATOM     14  N   UNL     1     -45.783  30.921  23.352  1.00  0.00    -0.398 N 
ATOM     15  H   UNL     1     -45.119  30.301  23.827  1.00  0.00     0.156 HD
ATOM     16  H   UNL     1     -45.302  31.551  22.717  1.00  0.00     0.156 HD
ENDBRANCH   6  14
BRANCH   8  17
ATOM     17  C   UNL     1     -48.431  29.892  24.004  1.00  0.00     0.256 C 
ATOM     18  O   UNL     1     -47.961  28.845  24.447  1.00  0.00    -0.269 OA
ATOM     19  N   UNL     1     -49.439  29.936  23.035  1.00  0.00    -0.336 N 
ATOM     20  C   UNL     1     -49.513  31.028  22.053  1.00  0.00     0.033 C 
ATOM     21  C   UNL     1     -49.904  28.645  22.522  1.00  0.00     0.033 C 
ATOM     22  C   UNL     1     -50.886  31.088  21.357  1.00  0.00     0.013 C 
ATOM     23  H   UNL     1     -48.721  30.848  21.314  1.00  0.00     0.051 H 
ATOM     24  H   UNL     1     -49.303  31.993  22.515  1.00  0.00     0.051 H 
ATOM     25  C   UNL     1     -51.265  28.755  21.814  1.00  0.00     0.013 C 
ATOM     26  H   UNL     1     -49.141  28.271  21.828  1.00  0.00     0.051 H 
ATOM     27  H   UNL     1     -49.980  27.929  23.347  1.00  0.00     0.051 H 
ATOM     28  N   UNL     1     -51.290  29.799  20.775  1.00  0.00    -0.313 NA
ATOM     29  H   UNL     1     -51.646  31.412  22.079  1.00  0.00     0.045 H 
ATOM     30  H   UNL     1     -50.853  31.841  20.563  1.00  0.00     0.045 H 
ATOM     31  H   UNL     1     -52.045  28.968  22.554  1.00  0.00     0.045 H 
ATOM     32  H   UNL     1     -51.510  27.792  21.355  1.00  0.00     0.045 H 
ATOM     33  H   UNL     1     -52.236  29.878  20.403  1.00  0.00     0.122 HD
ENDBRANCH   8  17
ENDBRANCH   4   5
ENDBRANCH   1   4
BRANCH   1  34
ATOM     34  C   UNL     1     -46.532  36.965  27.126  1.00  0.00     0.010 A 
ATOM     35  C   UNL     1     -45.670  36.819  28.206  1.00  0.00     0.034 A 
ATOM     36  C   UNL     1     -46.691  38.253  26.595  1.00  0.00    -0.028 A 
ATOM     37  N   UNL     1     -44.961  37.830  28.746  1.00  0.00    -0.262 NA
ATOM     38  H   UNL     1     -45.516  35.854  28.683  1.00  0.00     0.084 H 
ATOM     39  C   UNL     1     -45.978  39.334  27.125  1.00  0.00     0.066 A 
ATOM     40  H   UNL     1     -47.361  38.370  25.749  1.00  0.00     0.065 H 
ATOM     41  C   UNL     1     -45.129  39.058  28.193  1.00  0.00     0.051 A 
ATOM     42  H   UNL     1     -44.543  39.820  28.697  1.00  0.00     0.086 H 
BRANCH  39  43
ATOM     43  N   UNL     1     -46.099  40.662  26.606  1.00  0.00    -0.299 N 
ATOM     44  C   UNL     1     -45.158  41.290  25.801  1.00  0.00     0.018 A 
ATOM     45  C   UNL     1     -47.144  41.565  26.795  1.00  0.00     0.150 A 
ATOM     46  C   UNL     1     -45.581  42.565  25.465  1.00  0.00     0.012 A 
ATOM     47  H   UNL     1     -44.261  40.774  25.492  1.00  0.00     0.083 H 
ATOM     48  C   UNL     1     -46.845  42.740  26.110  1.00  0.00     0.067 A 
ATOM     49  N   UNL     1     -48.255  41.369  27.536  1.00  0.00    -0.218 NA
ATOM     50  C   UNL     1     -47.784  43.783  26.195  1.00  0.00     0.136 A 
ATOM     51  C   UNL     1     -49.076  42.427  27.535  1.00  0.00     0.120 A 
ATOM     52  N   UNL     1     -48.903  43.606  26.919  1.00  0.00    -0.219 NA
ATOM     53  H   UNL     1     -49.993  42.320  28.107  1.00  0.00     0.106 H 
BRANCH  46  54
ATOM     54  C   UNL     1     -44.902  43.586  24.589  1.00  0.00     0.085 C 
ATOM     55  C   UNL     1     -43.600  43.148  23.929  1.00  0.00    -0.020 C 
ATOM     56  O   UNL     1     -44.559  44.755  25.371  1.00  0.00    -0.373 OA
ATOM     57  H   UNL     1     -45.618  43.896  23.817  1.00  0.00     0.066 H 
ATOM     58  C   UNL     1     -42.565  43.539  24.954  1.00  0.00    -0.027 C 
ATOM     59  H   UNL     1     -43.554  42.095  23.638  1.00  0.00     0.030 H 
ATOM     60  H   UNL     1     -43.437  43.744  23.022  1.00  0.00     0.030 H 
ATOM     61  C   UNL     1     -43.131  44.838  25.483  1.00  0.00     0.048 C 
ATOM     62  H   UNL     1     -41.559  43.652  24.542  1.00  0.00     0.029 H 
ATOM     63  H   UNL     1     -42.523  42.792  25.755  1.00  0.00     0.029 H 
ATOM     64  H   UNL     1     -42.855  45.023  26.524  1.00  0.00     0.057 H 
ATOM     65  H   UNL     1     -42.800  45.689  24.878  1.00  0.00     0.057 H 
ENDBRANCH  46  54
BRANCH  50  66
ATOM     66  N   UNL     1     -47.613  45.023  25.590  1.00  0.00    -0.383 N 
ATOM     67  H   UNL     1     -47.544  44.953  24.575  1.00  0.00     0.158 HD
ATOM     68  H   UNL     1     -46.860  45.529  26.040  1.00  0.00     0.158 HD
ENDBRANCH  50  66
ENDBRANCH  39  43
ENDBRANCH   1  34
TORSDOF 8
ENDMDL
MODEL 5
REMARK VINA RESULT:      -9.5      2.077      3.134
REMARK SMILES Nc1cc(OCc2cncc(-n3cc([C@@H]4CCCO4)c4c(N)ncnc43)c2)ccc1C(=O)N1CCNCC1
REMARK SMILES IDX 6 1 5 4 4 5 2 6 3 7 30 8 29 10 28 11 1 14 31 17 32 18 33 19
REMARK SMILES IDX 34 20 38 21 35 22 37 25 36 28 7 34 8 35 27 36 9 37 11 39
REMARK SMILES IDX 10 41 12 43 13 44 26 45 14 46 20 48 25 49 21 50 24 51 23 52
REMARK SMILES IDX 15 54 16 55 19 56 17 58 18 61 22 66
REMARK H PARENT 6 2 6 3 3 9 29 12 28 13 1 15 1 16 34 23 34 24 38 26 38 27
REMARK H PARENT 35 29 35 30 37 31 37 32 36 33 8 38 27 40 10 42 13 47 24 53
REMARK H PARENT 15 57 16 59 16 60 17 62 17 63 18 64 18 65 22 67 22 68
REMARK Flexibility Score: inf
ROOT
ATOM      1  C   UNL     1     -46.043  34.642  26.925  1.00  0.00     0.115 C 
ATOM      2  H   UNL     1     -45.151  34.591  27.561  1.00  0.00     0.076 H 
ATOM      3  H   UNL     1     -45.675  34.654  25.891  1.00  0.00     0.076 H 
ENDROOT
BRANCH   1   4
ATOM      4  O   UNL     1     -46.794  33.455  27.182  1.00  0.00    -0.489 OA
BRANCH   4   5
ATOM      5  C   UNL     1     -47.387  32.804  26.135  1.00  0.00     0.121 A 
ATOM      6  C   UNL     1     -46.954  31.799  23.945  1.00  0.00     0.048 A 
ATOM      7  C   UNL     1     -46.518  32.498  25.079  1.00  0.00     0.004 A 
ATOM      8  C   UNL     1     -48.324  31.512  23.838  1.00  0.00     0.063 A 
ATOM      9  H   UNL     1     -45.477  32.808  25.152  1.00  0.00     0.068 H 
ATOM     10  C   UNL     1     -49.195  31.783  24.903  1.00  0.00    -0.044 A 
ATOM     11  C   UNL     1     -48.726  32.427  26.050  1.00  0.00    -0.019 A 
ATOM     12  H   UNL     1     -50.242  31.491  24.838  1.00  0.00     0.063 H 
ATOM     13  H   UNL     1     -49.431  32.610  26.854  1.00  0.00     0.066 H 
BRANCH   6  14
ATOM     14  N   UNL     1     -46.059  31.613  22.871  1.00  0.00    -0.398 N 
ATOM     15  H   UNL     1     -46.337  32.171  22.059  1.00  0.00     0.156 HD
ATOM     16  H   UNL     1     -45.935  30.637  22.617  1.00  0.00     0.156 HD
ENDBRANCH   6  14
BRANCH   8  17
ATOM     17  C   UNL     1     -48.857  30.827  22.636  1.00  0.00     0.256 C 
ATOM     18  O   UNL     1     -48.907  31.466  21.586  1.00  0.00    -0.269 OA
ATOM     19  N   UNL     1     -49.245  29.488  22.743  1.00  0.00    -0.336 N 
ATOM     20  C   UNL     1     -49.830  28.953  23.982  1.00  0.00     0.033 C 
ATOM     21  C   UNL     1     -49.768  28.863  21.525  1.00  0.00     0.033 C 
ATOM     22  C   UNL     1     -49.815  27.414  24.012  1.00  0.00     0.013 C 
ATOM     23  H   UNL     1     -50.862  29.324  24.035  1.00  0.00     0.051 H 
ATOM     24  H   UNL     1     -49.310  29.335  24.863  1.00  0.00     0.051 H 
ATOM     25  C   UNL     1     -49.758  27.327  21.607  1.00  0.00     0.013 C 
ATOM     26  H   UNL     1     -50.790  29.232  21.376  1.00  0.00     0.051 H 
ATOM     27  H   UNL     1     -49.172  29.185  20.664  1.00  0.00     0.051 H 
ATOM     28  N   UNL     1     -50.424  26.812  22.816  1.00  0.00    -0.313 NA
ATOM     29  H   UNL     1     -48.780  27.062  24.106  1.00  0.00     0.045 H 
ATOM     30  H   UNL     1     -50.357  27.068  24.898  1.00  0.00     0.045 H 
ATOM     31  H   UNL     1     -48.723  26.967  21.588  1.00  0.00     0.045 H 
ATOM     32  H   UNL     1     -50.259  26.917  20.724  1.00  0.00     0.045 H 
ATOM     33  H   UNL     1     -50.313  25.799  22.853  1.00  0.00     0.122 HD
ENDBRANCH   8  17
ENDBRANCH   4   5
ENDBRANCH   1   4
BRANCH   1  34
ATOM     34  C   UNL     1     -46.782  35.904  27.286  1.00  0.00     0.010 A 
ATOM     35  C   UNL     1     -48.019  35.836  27.914  1.00  0.00     0.034 A 
ATOM     36  C   UNL     1     -46.288  37.177  26.966  1.00  0.00    -0.028 A 
ATOM     37  N   UNL     1     -48.749  36.916  28.258  1.00  0.00    -0.262 NA
ATOM     38  H   UNL     1     -48.474  34.883  28.170  1.00  0.00     0.084 H 
ATOM     39  C   UNL     1     -47.012  38.326  27.301  1.00  0.00     0.066 A 
ATOM     40  H   UNL     1     -45.319  37.234  26.478  1.00  0.00     0.065 H 
ATOM     41  C   UNL     1     -48.229  38.130  27.948  1.00  0.00     0.051 A 
ATOM     42  H   UNL     1     -48.885  38.945  28.236  1.00  0.00     0.086 H 
BRANCH  39  43
ATOM     43  N   UNL     1     -46.540  39.645  27.007  1.00  0.00    -0.299 N 
ATOM     44  C   UNL     1     -45.205  40.027  26.992  1.00  0.00     0.018 A 
ATOM     45  C   UNL     1     -47.292  40.774  26.687  1.00  0.00     0.150 A 
ATOM     46  C   UNL     1     -45.088  41.366  26.663  1.00  0.00     0.012 A 
ATOM     47  H   UNL     1     -44.421  39.309  27.185  1.00  0.00     0.083 H 
ATOM     48  C   UNL     1     -46.424  41.842  26.478  1.00  0.00     0.067 A 
ATOM     49  N   UNL     1     -48.637  40.852  26.614  1.00  0.00    -0.218 NA
ATOM     50  C   UNL     1     -47.005  43.082  26.156  1.00  0.00     0.136 A 
ATOM     51  C   UNL     1     -49.072  42.077  26.293  1.00  0.00     0.120 A 
ATOM     52  N   UNL     1     -48.342  43.180  26.068  1.00  0.00    -0.219 NA
ATOM     53  H   UNL     1     -50.148  42.195  26.209  1.00  0.00     0.106 H 
BRANCH  46  54
ATOM     54  C   UNL     1     -43.838  42.194  26.497  1.00  0.00     0.085 C 
ATOM     55  C   UNL     1     -42.516  41.462  26.692  1.00  0.00    -0.020 C 
ATOM     56  O   UNL     1     -43.828  43.268  27.468  1.00  0.00    -0.373 OA
ATOM     57  H   UNL     1     -43.864  42.644  25.497  1.00  0.00     0.066 H 
ATOM     58  C   UNL     1     -42.265  41.627  28.171  1.00  0.00    -0.027 C 
ATOM     59  H   UNL     1     -42.503  40.422  26.358  1.00  0.00     0.030 H 
ATOM     60  H   UNL     1     -41.727  41.991  26.144  1.00  0.00     0.030 H 
ATOM     61  C   UNL     1     -42.778  43.028  28.416  1.00  0.00     0.048 C 
ATOM     62  H   UNL     1     -41.218  41.503  28.455  1.00  0.00     0.029 H 
ATOM     63  H   UNL     1     -42.860  40.903  28.739  1.00  0.00     0.029 H 
ATOM     64  H   UNL     1     -43.163  43.163  29.430  1.00  0.00     0.057 H 
ATOM     65  H   UNL     1     -41.995  43.773  28.238  1.00  0.00     0.057 H 
ENDBRANCH  46  54
BRANCH  50  66
ATOM     66  N   UNL     1     -46.271  44.244  25.948  1.00  0.00    -0.383 N 
ATOM     67  H   UNL     1     -46.867  45.048  25.751  1.00  0.00     0.158 HD
ATOM     68  H   UNL     1     -45.536  44.075  25.272  1.00  0.00     0.158 HD
ENDBRANCH  50  66
ENDBRANCH  39  43
ENDBRANCH   1  34
TORSDOF 8
ENDMDL
MODEL 6
REMARK VINA RESULT:      -9.4      2.323      3.632
REMARK SMILES Nc1cc(OCc2cncc(-n3cc([C@@H]4CCCO4)c4c(N)ncnc43)c2)ccc1C(=O)N1CCNCC1
REMARK SMILES IDX 6 1 5 4 4 5 2 6 3 7 30 8 29 10 28 11 1 14 31 17 32 18 33 19
REMARK SMILES IDX 34 20 38 21 35 22 37 25 36 28 7 34 8 35 27 36 9 37 11 39
REMARK SMILES IDX 10 41 12 43 13 44 26 45 14 46 20 48 25 49 21 50 24 51 23 52
REMARK SMILES IDX 15 54 16 55 19 56 17 58 18 61 22 66
REMARK H PARENT 6 2 6 3 3 9 29 12 28 13 1 15 1 16 34 23 34 24 38 26 38 27
REMARK H PARENT 35 29 35 30 37 31 37 32 36 33 8 38 27 40 10 42 13 47 24 53
REMARK H PARENT 15 57 16 59 16 60 17 62 17 63 18 64 18 65 22 67 22 68
REMARK Flexibility Score: inf
ROOT
ATOM      1  C   UNL     1     -47.216  35.743  26.850  1.00  0.00     0.115 C 
ATOM      2  H   UNL     1     -47.968  36.098  26.134  1.00  0.00     0.076 H 
ATOM      3  H   UNL     1     -47.777  35.245  27.651  1.00  0.00     0.076 H 
ENDROOT
BRANCH   1   4
ATOM      4  O   UNL     1     -46.395  34.808  26.149  1.00  0.00    -0.489 OA
BRANCH   4   5
ATOM      5  C   UNL     1     -46.954  33.649  25.687  1.00  0.00     0.121 A 
ATOM      6  C   UNL     1     -46.516  31.659  24.330  1.00  0.00     0.048 A 
ATOM      7  C   UNL     1     -46.113  32.893  24.858  1.00  0.00     0.004 A 
ATOM      8  C   UNL     1     -47.840  31.248  24.557  1.00  0.00     0.063 A 
ATOM      9  H   UNL     1     -45.121  33.277  24.630  1.00  0.00     0.068 H 
ATOM     10  C   UNL     1     -48.677  31.980  25.411  1.00  0.00    -0.044 A 
ATOM     11  C   UNL     1     -48.233  33.177  25.977  1.00  0.00    -0.019 A 
ATOM     12  H   UNL     1     -49.677  31.614  25.637  1.00  0.00     0.063 H 
ATOM     13  H   UNL     1     -48.909  33.707  26.639  1.00  0.00     0.066 H 
BRANCH   6  14
ATOM     14  N   UNL     1     -45.667  30.995  23.420  1.00  0.00    -0.398 N 
ATOM     15  H   UNL     1     -45.391  30.075  23.778  1.00  0.00     0.156 HD
ATOM     16  H   UNL     1     -44.853  31.543  23.158  1.00  0.00     0.156 HD
ENDBRANCH   6  14
BRANCH   8  17
ATOM     17  C   UNL     1     -48.343  29.981  23.975  1.00  0.00     0.256 C 
ATOM     18  O   UNL     1     -48.673  29.984  22.790  1.00  0.00    -0.269 OA
ATOM     19  N   UNL     1     -48.392  28.842  24.786  1.00  0.00    -0.336 N 
ATOM     20  C   UNL     1     -48.676  28.935  26.226  1.00  0.00     0.033 C 
ATOM     21  C   UNL     1     -48.902  27.620  24.161  1.00  0.00     0.033 C 
ATOM     22  C   UNL     1     -48.299  27.644  26.975  1.00  0.00     0.013 C 
ATOM     23  H   UNL     1     -49.751  29.133  26.328  1.00  0.00     0.051 H 
ATOM     24  H   UNL     1     -48.153  29.779  26.680  1.00  0.00     0.051 H 
ATOM     25  C   UNL     1     -48.524  26.357  24.954  1.00  0.00     0.013 C 
ATOM     26  H   UNL     1     -49.992  27.714  24.089  1.00  0.00     0.051 H 
ATOM     27  H   UNL     1     -48.510  27.539  23.141  1.00  0.00     0.051 H 
ATOM     28  N   UNL     1     -48.894  26.440  26.377  1.00  0.00    -0.313 NA
ATOM     29  H   UNL     1     -47.207  27.537  26.990  1.00  0.00     0.045 H 
ATOM     30  H   UNL     1     -48.630  27.724  28.016  1.00  0.00     0.045 H 
ATOM     31  H   UNL     1     -47.444  26.186  24.875  1.00  0.00     0.045 H 
ATOM     32  H   UNL     1     -49.022  25.490  24.507  1.00  0.00     0.045 H 
ATOM     33  H   UNL     1     -48.546  25.613  26.862  1.00  0.00     0.122 HD
ENDBRANCH   8  17
ENDBRANCH   4   5
ENDBRANCH   1   4
BRANCH   1  34
ATOM     34  C   UNL     1     -46.459  36.948  27.343  1.00  0.00     0.010 A 
ATOM     35  C   UNL     1     -45.625  36.848  28.449  1.00  0.00     0.034 A 
ATOM     36  C   UNL     1     -46.598  38.212  26.749  1.00  0.00    -0.028 A 
ATOM     37  N   UNL     1     -44.924  37.881  28.959  1.00  0.00    -0.262 NA
ATOM     38  H   UNL     1     -45.488  35.906  28.973  1.00  0.00     0.084 H 
ATOM     39  C   UNL     1     -45.892  39.312  27.246  1.00  0.00     0.066 A 
ATOM     40  H   UNL     1     -47.246  38.292  25.882  1.00  0.00     0.065 H 
ATOM     41  C   UNL     1     -45.071  39.082  28.347  1.00  0.00     0.051 A 
ATOM     42  H   UNL     1     -44.493  39.864  28.829  1.00  0.00     0.086 H 
BRANCH  39  43
ATOM     43  N   UNL     1     -45.992  40.616  26.663  1.00  0.00    -0.299 N 
ATOM     44  C   UNL     1     -45.008  41.220  25.892  1.00  0.00     0.018 A 
ATOM     45  C   UNL     1     -47.056  41.513  26.747  1.00  0.00     0.150 A 
ATOM     46  C   UNL     1     -45.421  42.474  25.476  1.00  0.00     0.012 A 
ATOM     47  H   UNL     1     -44.089  40.703  25.663  1.00  0.00     0.083 H 
ATOM     48  C   UNL     1     -46.726  42.661  26.032  1.00  0.00     0.067 A 
ATOM     49  N   UNL     1     -48.209  41.335  27.424  1.00  0.00    -0.218 NA
ATOM     50  C   UNL     1     -47.678  43.696  26.013  1.00  0.00     0.136 A 
ATOM     51  C   UNL     1     -49.039  42.382  27.326  1.00  0.00     0.120 A 
ATOM     52  N   UNL     1     -48.838  43.536  26.672  1.00  0.00    -0.219 NA
ATOM     53  H   UNL     1     -49.989  42.288  27.843  1.00  0.00     0.106 H 
BRANCH  46  54
ATOM     54  C   UNL     1     -44.698  43.466  24.600  1.00  0.00     0.085 C 
ATOM     55  C   UNL     1     -43.332  43.034  24.082  1.00  0.00    -0.020 C 
ATOM     56  O   UNL     1     -44.458  44.689  25.337  1.00  0.00    -0.373 OA
ATOM     57  H   UNL     1     -45.352  43.706  23.753  1.00  0.00     0.066 H 
ATOM     58  C   UNL     1     -42.401  43.519  25.166  1.00  0.00    -0.027 C 
ATOM     59  H   UNL     1     -43.230  41.969  23.861  1.00  0.00     0.030 H 
ATOM     60  H   UNL     1     -43.107  43.582  23.158  1.00  0.00     0.030 H 
ATOM     61  C   UNL     1     -43.049  44.826  25.565  1.00  0.00     0.048 C 
ATOM     62  H   UNL     1     -41.367  43.642  24.835  1.00  0.00     0.029 H 
ATOM     63  H   UNL     1     -42.408  42.822  26.011  1.00  0.00     0.029 H 
ATOM     64  H   UNL     1     -42.870  45.080  26.613  1.00  0.00     0.057 H 
ATOM     65  H   UNL     1     -42.691  45.652  24.941  1.00  0.00     0.057 H 
ENDBRANCH  46  54
BRANCH  50  66
ATOM     66  N   UNL     1     -47.481  44.911  25.367  1.00  0.00    -0.383 N 
ATOM     67  H   UNL     1     -46.613  45.366  25.653  1.00  0.00     0.158 HD
ATOM     68  H   UNL     1     -48.313  45.483  25.441  1.00  0.00     0.158 HD
ENDBRANCH  50  66
ENDBRANCH  39  43
ENDBRANCH   1  34
TORSDOF 8
ENDMDL
MODEL 7
REMARK VINA RESULT:      -9.4      2.348      3.377
REMARK SMILES Nc1cc(OCc2cncc(-n3cc([C@@H]4CCCO4)c4c(N)ncnc43)c2)ccc1C(=O)N1CCNCC1
REMARK SMILES IDX 6 1 5 4 4 5 2 6 3 7 30 8 29 10 28 11 1 14 31 17 32 18 33 19
REMARK SMILES IDX 34 20 38 21 35 22 37 25 36 28 7 34 8 35 27 36 9 37 11 39
REMARK SMILES IDX 10 41 12 43 13 44 26 45 14 46 20 48 25 49 21 50 24 51 23 52
REMARK SMILES IDX 15 54 16 55 19 56 17 58 18 61 22 66
REMARK H PARENT 6 2 6 3 3 9 29 12 28 13 1 15 1 16 34 23 34 24 38 26 38 27
REMARK H PARENT 35 29 35 30 37 31 37 32 36 33 8 38 27 40 10 42 13 47 24 53
REMARK H PARENT 15 57 16 59 16 60 17 62 17 63 18 64 18 65 22 67 22 68
REMARK Flexibility Score: inf
ROOT
ATOM      1  C   UNL     1     -46.242  34.724  26.600  1.00  0.00     0.115 C 
ATOM      2  H   UNL     1     -45.240  34.296  26.728  1.00  0.00     0.076 H 
ATOM      3  H   UNL     1     -46.322  34.989  25.539  1.00  0.00     0.076 H 
ENDROOT
BRANCH   1   4
ATOM      4  O   UNL     1     -47.171  33.692  26.938  1.00  0.00    -0.489 OA
BRANCH   4   5
ATOM      5  C   UNL     1     -47.423  32.702  26.028  1.00  0.00     0.121 A 
ATOM      6  C   UNL     1     -46.682  31.756  23.895  1.00  0.00     0.048 A 
ATOM      7  C   UNL     1     -46.584  32.722  24.905  1.00  0.00     0.004 A 
ATOM      8  C   UNL     1     -47.730  30.824  23.978  1.00  0.00     0.063 A 
ATOM      9  H   UNL     1     -45.834  33.507  24.828  1.00  0.00     0.068 H 
ATOM     10  C   UNL     1     -48.553  30.775  25.112  1.00  0.00    -0.044 A 
ATOM     11  C   UNL     1     -48.397  31.712  26.136  1.00  0.00    -0.019 A 
ATOM     12  H   UNL     1     -49.316  30.004  25.197  1.00  0.00     0.063 H 
ATOM     13  H   UNL     1     -49.049  31.632  26.999  1.00  0.00     0.066 H 
BRANCH   6  14
ATOM     14  N   UNL     1     -45.881  31.889  22.742  1.00  0.00    -0.398 N 
ATOM     15  H   UNL     1     -44.945  31.502  22.898  1.00  0.00     0.156 HD
ATOM     16  H   UNL     1     -45.829  32.842  22.398  1.00  0.00     0.156 HD
ENDBRANCH   6  14
BRANCH   8  17
ATOM     17  C   UNL     1     -47.923  29.814  22.910  1.00  0.00     0.256 C 
ATOM     18  O   UNL     1     -47.060  28.947  22.776  1.00  0.00    -0.269 OA
ATOM     19  N   UNL     1     -49.082  29.874  22.130  1.00  0.00    -0.336 N 
ATOM     20  C   UNL     1     -49.715  31.158  21.791  1.00  0.00     0.033 C 
ATOM     21  C   UNL     1     -49.218  28.854  21.088  1.00  0.00     0.033 C 
ATOM     22  C   UNL     1     -51.155  30.975  21.277  1.00  0.00     0.013 C 
ATOM     23  H   UNL     1     -49.092  31.627  21.018  1.00  0.00     0.051 H 
ATOM     24  H   UNL     1     -49.722  31.835  22.647  1.00  0.00     0.051 H 
ATOM     25  C   UNL     1     -50.666  28.722  20.586  1.00  0.00     0.013 C 
ATOM     26  H   UNL     1     -48.551  29.133  20.262  1.00  0.00     0.051 H 
ATOM     27  H   UNL     1     -48.878  27.887  21.475  1.00  0.00     0.051 H 
ATOM     28  N   UNL     1     -51.251  30.010  20.172  1.00  0.00    -0.313 NA
ATOM     29  H   UNL     1     -51.796  30.644  22.103  1.00  0.00     0.045 H 
ATOM     30  H   UNL     1     -51.539  31.942  20.937  1.00  0.00     0.045 H 
ATOM     31  H   UNL     1     -51.288  28.284  21.376  1.00  0.00     0.045 H 
ATOM     32  H   UNL     1     -50.690  28.032  19.736  1.00  0.00     0.045 H 
ATOM     33  H   UNL     1     -52.231  29.869  19.930  1.00  0.00     0.122 HD
ENDBRANCH   8  17
ENDBRANCH   4   5
ENDBRANCH   1   4
BRANCH   1  34
ATOM     34  C   UNL     1     -46.336  35.927  27.502  1.00  0.00     0.010 A 
ATOM     35  C   UNL     1     -46.160  35.791  28.873  1.00  0.00     0.034 A 
ATOM     36  C   UNL     1     -46.648  37.204  27.013  1.00  0.00    -0.028 A 
ATOM     37  N   UNL     1     -46.241  36.813  29.747  1.00  0.00    -0.262 NA
ATOM     38  H   UNL     1     -45.940  34.826  29.324  1.00  0.00     0.084 H 
ATOM     39  C   UNL     1     -46.744  38.295  27.884  1.00  0.00     0.066 A 
ATOM     40  H   UNL     1     -46.781  37.314  25.941  1.00  0.00     0.065 H 
ATOM     41  C   UNL     1     -46.527  38.036  29.234  1.00  0.00     0.051 A 
ATOM     42  H   UNL     1     -46.597  38.799  30.003  1.00  0.00     0.086 H 
BRANCH  39  43
ATOM     43  N   UNL     1     -47.046  39.617  27.428  1.00  0.00    -0.299 N 
ATOM     44  C   UNL     1     -48.261  40.265  27.613  1.00  0.00     0.018 A 
ATOM     45  C   UNL     1     -46.217  40.494  26.730  1.00  0.00     0.150 A 
ATOM     46  C   UNL     1     -48.223  41.532  27.060  1.00  0.00     0.012 A 
ATOM     47  H   UNL     1     -49.063  39.790  28.158  1.00  0.00     0.083 H 
ATOM     48  C   UNL     1     -46.919  41.672  26.488  1.00  0.00     0.067 A 
ATOM     49  N   UNL     1     -44.954  40.255  26.320  1.00  0.00    -0.218 NA
ATOM     50  C   UNL     1     -46.246  42.681  25.776  1.00  0.00     0.136 A 
ATOM     51  C   UNL     1     -44.415  41.289  25.662  1.00  0.00     0.120 A 
ATOM     52  N   UNL     1     -44.984  42.469  25.368  1.00  0.00    -0.219 NA
ATOM     53  H   UNL     1     -43.393  41.156  25.318  1.00  0.00     0.106 H 
BRANCH  46  54
ATOM     54  C   UNL     1     -49.294  42.593  27.053  1.00  0.00     0.085 C 
ATOM     55  C   UNL     1     -50.572  42.264  27.816  1.00  0.00    -0.020 C 
ATOM     56  O   UNL     1     -49.717  42.857  25.694  1.00  0.00    -0.373 OA
ATOM     57  H   UNL     1     -48.856  43.516  27.454  1.00  0.00     0.066 H 
ATOM     58  C   UNL     1     -51.419  41.595  26.762  1.00  0.00    -0.027 C 
ATOM     59  H   UNL     1     -50.437  41.663  28.718  1.00  0.00     0.030 H 
ATOM     60  H   UNL     1     -51.063  43.198  28.117  1.00  0.00     0.030 H 
ATOM     61  C   UNL     1     -51.065  42.395  25.529  1.00  0.00     0.048 C 
ATOM     62  H   UNL     1     -52.489  41.610  26.984  1.00  0.00     0.029 H 
ATOM     63  H   UNL     1     -51.111  40.551  26.635  1.00  0.00     0.029 H 
ATOM     64  H   UNL     1     -51.142  41.807  24.610  1.00  0.00     0.057 H 
ATOM     65  H   UNL     1     -51.708  43.277  25.431  1.00  0.00     0.057 H 
ENDBRANCH  46  54
BRANCH  50  66
ATOM     66  N   UNL     1     -46.824  43.898  25.435  1.00  0.00    -0.383 N 
ATOM     67  H   UNL     1     -47.823  43.812  25.242  1.00  0.00     0.158 HD
ATOM     68  H   UNL     1     -46.281  44.349  24.710  1.00  0.00     0.158 HD
ENDBRANCH  50  66
ENDBRANCH  39  43
ENDBRANCH   1  34
TORSDOF 8
ENDMDL
