MODEL 1
REMARK VINA RESULT:     -10.2      0.000      0.000
REMARK SMILES Nc1ncnc2c1c(CO)cn2-c1cncc(COc2ccc3ccc(N4CCC4)nc3c2)c1
REMARK SMILES IDX 13 1 14 2 15 3 16 4 17 5 34 6 12 10 2 11 3 12 7 13 4 14 6 15
REMARK SMILES IDX 8 16 5 17 11 19 1 21 9 24 10 27 18 29 19 32 20 33 21 34
REMARK SMILES IDX 33 35 22 36 32 38 23 40 31 42 24 43 26 44 25 45 27 48 28 49
REMARK SMILES IDX 30 50 29 51
REMARK H PARENT 14 7 16 8 34 9 4 18 11 20 1 22 1 23 9 25 9 26 10 28 18 30
REMARK H PARENT 18 31 21 37 33 39 22 41 24 46 25 47 28 52 28 53 30 54 30 55
REMARK H PARENT 29 56 29 57
REMARK Flexibility Score: inf
ROOT
ATOM      1  C   UNL     1     -47.339  32.937  25.926  1.00  0.00     0.066 A 
ATOM      2  C   UNL     1     -46.743  32.376  27.053  1.00  0.00     0.051 A 
ATOM      3  N   UNL     1     -46.163  33.088  28.050  1.00  0.00    -0.262 NA
ATOM      4  C   UNL     1     -46.161  34.431  27.921  1.00  0.00     0.034 A 
ATOM      5  C   UNL     1     -46.713  35.104  26.839  1.00  0.00     0.010 A 
ATOM      6  C   UNL     1     -47.320  34.332  25.836  1.00  0.00    -0.028 A 
ATOM      7  H   UNL     1     -46.710  31.308  27.239  1.00  0.00     0.086 H 
ATOM      8  H   UNL     1     -45.686  34.968  28.739  1.00  0.00     0.084 H 
ATOM      9  H   UNL     1     -47.749  34.856  24.989  1.00  0.00     0.065 H 
ENDROOT
BRANCH   1  10
ATOM     10  N   UNL     1     -47.940  32.109  24.923  1.00  0.00    -0.299 N 
ATOM     11  C   UNL     1     -47.911  30.275  21.857  1.00  0.00     0.136 A 
ATOM     12  N   UNL     1     -46.655  30.450  21.420  1.00  0.00    -0.219 NA
ATOM     13  C   UNL     1     -48.310  30.864  23.066  1.00  0.00     0.067 A 
ATOM     14  C   UNL     1     -45.829  31.202  22.166  1.00  0.00     0.120 A 
ATOM     15  C   UNL     1     -47.359  31.614  23.752  1.00  0.00     0.150 A 
ATOM     16  C   UNL     1     -49.507  30.868  23.839  1.00  0.00     0.009 A 
ATOM     17  N   UNL     1     -46.097  31.824  23.322  1.00  0.00    -0.218 NA
ATOM     18  H   UNL     1     -44.821  31.322  21.781  1.00  0.00     0.106 H 
ATOM     19  C   UNL     1     -49.248  31.643  24.952  1.00  0.00     0.017 A 
ATOM     20  H   UNL     1     -49.907  31.860  25.781  1.00  0.00     0.083 H 
BRANCH  11  21
ATOM     21  N   UNL     1     -48.755  29.502  21.060  1.00  0.00    -0.383 N 
ATOM     22  H   UNL     1     -48.759  28.557  21.442  1.00  0.00     0.158 HD
ATOM     23  H   UNL     1     -48.483  29.519  20.084  1.00  0.00     0.158 HD
ENDBRANCH  11  21
BRANCH  16  24
ATOM     24  C   UNL     1     -50.781  30.163  23.523  1.00  0.00     0.070 C 
ATOM     25  H   UNL     1     -51.502  30.293  24.338  1.00  0.00     0.062 H 
ATOM     26  H   UNL     1     -50.611  29.088  23.407  1.00  0.00     0.062 H 
BRANCH  24  27
ATOM     27  O   UNL     1     -51.368  30.637  22.319  1.00  0.00    -0.392 OA
ATOM     28  H   UNL     1     -50.761  31.303  21.944  1.00  0.00     0.211 HD
ENDBRANCH  24  27
ENDBRANCH  16  24
ENDBRANCH   1  10
BRANCH   5  29
ATOM     29  C   UNL     1     -46.721  36.609  26.774  1.00  0.00     0.115 C 
ATOM     30  H   UNL     1     -45.781  36.961  26.334  1.00  0.00     0.076 H 
ATOM     31  H   UNL     1     -47.566  36.919  26.148  1.00  0.00     0.076 H 
BRANCH  29  32
ATOM     32  O   UNL     1     -46.851  37.143  28.091  1.00  0.00    -0.489 OA
BRANCH  32  33
ATOM     33  C   UNL     1     -45.802  37.874  28.579  1.00  0.00     0.122 A 
ATOM     34  C   UNL     1     -45.065  37.585  29.723  1.00  0.00    -0.019 A 
ATOM     35  C   UNL     1     -45.480  39.007  27.824  1.00  0.00     0.007 A 
ATOM     36  C   UNL     1     -44.016  38.426  30.100  1.00  0.00    -0.049 A 
ATOM     37  H   UNL     1     -45.275  36.721  30.344  1.00  0.00     0.066 H 
ATOM     38  C   UNL     1     -44.442  39.861  28.175  1.00  0.00     0.076 A 
ATOM     39  H   UNL     1     -46.056  39.234  26.929  1.00  0.00     0.069 H 
ATOM     40  C   UNL     1     -43.702  39.560  29.333  1.00  0.00     0.001 A 
ATOM     41  H   UNL     1     -43.445  38.192  30.996  1.00  0.00     0.063 H 
ATOM     42  N   UNL     1     -44.179  40.935  27.410  1.00  0.00    -0.231 NA
ATOM     43  C   UNL     1     -42.659  40.421  29.681  1.00  0.00    -0.049 A 
ATOM     44  C   UNL     1     -43.171  41.767  27.757  1.00  0.00     0.129 A 
ATOM     45  C   UNL     1     -42.391  41.530  28.884  1.00  0.00    -0.019 A 
ATOM     46  H   UNL     1     -42.050  40.235  30.560  1.00  0.00     0.063 H 
ATOM     47  H   UNL     1     -41.574  42.194  29.140  1.00  0.00     0.066 H 
BRANCH  44  48
ATOM     48  N   UNL     1     -42.901  42.879  26.938  1.00  0.00    -0.356 N 
ATOM     49  C   UNL     1     -43.838  43.565  26.096  1.00  0.00     0.021 C 
ATOM     50  C   UNL     1     -41.876  42.908  25.932  1.00  0.00     0.021 C 
ATOM     51  C   UNL     1     -42.623  44.104  25.333  1.00  0.00    -0.018 C 
ATOM     52  H   UNL     1     -44.478  42.883  25.524  1.00  0.00     0.049 H 
ATOM     53  H   UNL     1     -44.437  44.310  26.623  1.00  0.00     0.049 H 
ATOM     54  H   UNL     1     -40.880  43.118  26.331  1.00  0.00     0.049 H 
ATOM     55  H   UNL     1     -41.863  42.011  25.304  1.00  0.00     0.049 H 
ATOM     56  H   UNL     1     -42.268  45.080  25.682  1.00  0.00     0.030 H 
ATOM     57  H   UNL     1     -42.710  44.114  24.244  1.00  0.00     0.030 H 
ENDBRANCH  44  48
ENDBRANCH  32  33
ENDBRANCH  29  32
ENDBRANCH   5  29
TORSDOF 8
ENDMDL
MODEL 2
REMARK VINA RESULT:     -10.1      1.240      2.020
REMARK SMILES Nc1ncnc2c1c(CO)cn2-c1cncc(COc2ccc3ccc(N4CCC4)nc3c2)c1
REMARK SMILES IDX 13 1 14 2 15 3 16 4 17 5 34 6 12 10 2 11 3 12 7 13 4 14 6 15
REMARK SMILES IDX 8 16 5 17 11 19 1 21 9 24 10 27 18 29 19 32 20 33 21 34
REMARK SMILES IDX 33 35 22 36 32 38 23 40 31 42 24 43 26 44 25 45 27 48 28 49
REMARK SMILES IDX 30 50 29 51
REMARK H PARENT 14 7 16 8 34 9 4 18 11 20 1 22 1 23 9 25 9 26 10 28 18 30
REMARK H PARENT 18 31 21 37 33 39 22 41 24 46 25 47 28 52 28 53 30 54 30 55
REMARK H PARENT 29 56 29 57
REMARK Flexibility Score: inf
ROOT
ATOM      1  C   UNL     1     -46.809  33.135  25.908  1.00  0.00     0.066 A 
ATOM      2  C   UNL     1     -46.400  32.638  27.143  1.00  0.00     0.051 A 
ATOM      3  N   UNL     1     -46.162  33.402  28.237  1.00  0.00    -0.262 NA
ATOM      4  C   UNL     1     -46.326  34.734  28.101  1.00  0.00     0.034 A 
ATOM      5  C   UNL     1     -46.719  35.347  26.919  1.00  0.00     0.010 A 
ATOM      6  C   UNL     1     -46.973  34.520  25.813  1.00  0.00    -0.028 A 
ATOM      7  H   UNL     1     -46.254  31.582  27.341  1.00  0.00     0.086 H 
ATOM      8  H   UNL     1     -46.125  35.314  28.999  1.00  0.00     0.084 H 
ATOM      9  H   UNL     1     -47.277  34.998  24.887  1.00  0.00     0.065 H 
ENDROOT
BRANCH   1  10
ATOM     10  N   UNL     1     -47.049  32.253  24.804  1.00  0.00    -0.299 N 
ATOM     11  C   UNL     1     -49.156  30.362  22.626  1.00  0.00     0.136 A 
ATOM     12  N   UNL     1     -50.384  30.640  23.088  1.00  0.00    -0.219 NA
ATOM     13  C   UNL     1     -48.038  30.938  23.246  1.00  0.00     0.067 A 
ATOM     14  C   UNL     1     -50.487  31.459  24.147  1.00  0.00     0.120 A 
ATOM     15  C   UNL     1     -48.275  31.778  24.331  1.00  0.00     0.150 A 
ATOM     16  C   UNL     1     -46.632  30.907  23.019  1.00  0.00     0.009 A 
ATOM     17  N   UNL     1     -49.499  32.054  24.829  1.00  0.00    -0.218 NA
ATOM     18  H   UNL     1     -51.495  31.660  24.495  1.00  0.00     0.106 H 
ATOM     19  C   UNL     1     -46.064  31.707  23.992  1.00  0.00     0.017 A 
ATOM     20  H   UNL     1     -45.019  31.949  24.129  1.00  0.00     0.083 H 
BRANCH  11  21
ATOM     21  N   UNL     1     -49.073  29.498  21.534  1.00  0.00    -0.383 N 
ATOM     22  H   UNL     1     -48.375  28.789  21.755  1.00  0.00     0.158 HD
ATOM     23  H   UNL     1     -48.863  29.988  20.672  1.00  0.00     0.158 HD
ENDBRANCH  11  21
BRANCH  16  24
ATOM     24  C   UNL     1     -45.913  30.174  21.940  1.00  0.00     0.070 C 
ATOM     25  H   UNL     1     -46.177  29.111  21.958  1.00  0.00     0.062 H 
ATOM     26  H   UNL     1     -44.829  30.243  22.079  1.00  0.00     0.062 H 
BRANCH  24  27
ATOM     27  O   UNL     1     -46.214  30.693  20.651  1.00  0.00    -0.392 OA
ATOM     28  H   UNL     1     -45.636  30.233  20.013  1.00  0.00     0.211 HD
ENDBRANCH  24  27
ENDBRANCH  16  24
ENDBRANCH   1  10
BRANCH   5  29
ATOM     29  C   UNL     1     -46.931  36.837  26.841  1.00  0.00     0.115 C 
ATOM     30  H   UNL     1     -46.094  37.297  26.301  1.00  0.00     0.076 H 
ATOM     31  H   UNL     1     -47.869  37.020  26.303  1.00  0.00     0.076 H 
BRANCH  29  32
ATOM     32  O   UNL     1     -46.994  37.379  28.159  1.00  0.00    -0.489 OA
BRANCH  32  33
ATOM     33  C   UNL     1     -45.893  38.052  28.615  1.00  0.00     0.122 A 
ATOM     34  C   UNL     1     -45.176  37.759  29.770  1.00  0.00    -0.019 A 
ATOM     35  C   UNL     1     -45.492  39.125  27.811  1.00  0.00     0.007 A 
ATOM     36  C   UNL     1     -44.066  38.537  30.111  1.00  0.00    -0.049 A 
ATOM     37  H   UNL     1     -45.445  36.940  30.428  1.00  0.00     0.066 H 
ATOM     38  C   UNL     1     -44.394  39.915  28.126  1.00  0.00     0.076 A 
ATOM     39  H   UNL     1     -46.053  39.356  26.908  1.00  0.00     0.069 H 
ATOM     40  C   UNL     1     -43.674  39.611  29.295  1.00  0.00     0.001 A 
ATOM     41  H   UNL     1     -43.511  38.300  31.016  1.00  0.00     0.063 H 
ATOM     42  N   UNL     1     -44.056  40.934  27.316  1.00  0.00    -0.231 NA
ATOM     43  C   UNL     1     -42.570  40.408  29.606  1.00  0.00    -0.049 A 
ATOM     44  C   UNL     1     -42.989  41.704  27.627  1.00  0.00     0.129 A 
ATOM     45  C   UNL     1     -42.224  41.459  28.763  1.00  0.00    -0.019 A 
ATOM     46  H   UNL     1     -41.972  40.216  30.492  1.00  0.00     0.063 H 
ATOM     47  H   UNL     1     -41.360  42.072  28.989  1.00  0.00     0.066 H 
BRANCH  44  48
ATOM     48  N   UNL     1     -42.641  42.757  26.760  1.00  0.00    -0.356 N 
ATOM     49  C   UNL     1     -43.489  43.368  25.777  1.00  0.00     0.021 C 
ATOM     50  C   UNL     1     -41.517  42.728  25.867  1.00  0.00     0.021 C 
ATOM     51  C   UNL     1     -42.204  43.867  25.107  1.00  0.00    -0.018 C 
ATOM     52  H   UNL     1     -44.061  42.638  25.194  1.00  0.00     0.049 H 
ATOM     53  H   UNL     1     -44.144  44.142  26.183  1.00  0.00     0.049 H 
ATOM     54  H   UNL     1     -40.569  42.980  26.350  1.00  0.00     0.049 H 
ATOM     55  H   UNL     1     -41.433  41.788  25.310  1.00  0.00     0.049 H 
ATOM     56  H   UNL     1     -41.893  44.870  25.419  1.00  0.00     0.030 H 
ATOM     57  H   UNL     1     -42.177  43.797  24.017  1.00  0.00     0.030 H 
ENDBRANCH  44  48
ENDBRANCH  32  33
ENDBRANCH  29  32
ENDBRANCH   5  29
TORSDOF 8
ENDMDL
MODEL 3
REMARK VINA RESULT:     -10.1      3.126     11.674
REMARK SMILES Nc1ncnc2c1c(CO)cn2-c1cncc(COc2ccc3ccc(N4CCC4)nc3c2)c1
REMARK SMILES IDX 13 1 14 2 15 3 16 4 17 5 34 6 12 10 2 11 3 12 7 13 4 14 6 15
REMARK SMILES IDX 8 16 5 17 11 19 1 21 9 24 10 27 18 29 19 32 20 33 21 34
REMARK SMILES IDX 33 35 22 36 32 38 23 40 31 42 24 43 26 44 25 45 27 48 28 49
REMARK SMILES IDX 30 50 29 51
REMARK H PARENT 14 7 16 8 34 9 4 18 11 20 1 22 1 23 9 25 9 26 10 28 18 30
REMARK H PARENT 18 31 21 37 33 39 22 41 24 46 25 47 28 52 28 53 30 54 30 55
REMARK H PARENT 29 56 29 57
REMARK Flexibility Score: inf
ROOT
ATOM      1  C   UNL     1     -46.964  37.776  27.369  1.00  0.00     0.066 A 
ATOM      2  C   UNL     1     -48.217  37.941  27.953  1.00  0.00     0.051 A 
ATOM      3  N   UNL     1     -49.198  37.006  27.943  1.00  0.00    -0.262 NA
ATOM      4  C   UNL     1     -48.930  35.845  27.310  1.00  0.00     0.034 A 
ATOM      5  C   UNL     1     -47.724  35.569  26.681  1.00  0.00     0.010 A 
ATOM      6  C   UNL     1     -46.727  36.556  26.728  1.00  0.00    -0.028 A 
ATOM      7  H   UNL     1     -48.511  38.837  28.490  1.00  0.00     0.086 H 
ATOM      8  H   UNL     1     -49.741  35.120  27.323  1.00  0.00     0.084 H 
ATOM      9  H   UNL     1     -45.785  36.344  26.234  1.00  0.00     0.065 H 
ENDROOT
BRANCH   1  10
ATOM     10  N   UNL     1     -45.980  38.816  27.435  1.00  0.00    -0.299 N 
ATOM     11  C   UNL     1     -43.224  40.513  28.946  1.00  0.00     0.136 A 
ATOM     12  N   UNL     1     -42.972  39.762  30.028  1.00  0.00    -0.219 NA
ATOM     13  C   UNL     1     -44.267  40.151  28.082  1.00  0.00     0.067 A 
ATOM     14  C   UNL     1     -43.749  38.689  30.244  1.00  0.00     0.120 A 
ATOM     15  C   UNL     1     -44.998  39.012  28.410  1.00  0.00     0.150 A 
ATOM     16  C   UNL     1     -44.788  40.666  26.860  1.00  0.00     0.009 A 
ATOM     17  N   UNL     1     -44.778  38.254  29.504  1.00  0.00    -0.218 NA
ATOM     18  H   UNL     1     -43.517  38.106  31.130  1.00  0.00     0.106 H 
ATOM     19  C   UNL     1     -45.834  39.836  26.504  1.00  0.00     0.017 A 
ATOM     20  H   UNL     1     -46.458  39.892  25.623  1.00  0.00     0.083 H 
BRANCH  11  21
ATOM     21  N   UNL     1     -42.411  41.630  28.750  1.00  0.00    -0.383 N 
ATOM     22  H   UNL     1     -42.300  42.091  29.652  1.00  0.00     0.158 HD
ATOM     23  H   UNL     1     -42.782  42.255  28.044  1.00  0.00     0.158 HD
ENDBRANCH  11  21
BRANCH  16  24
ATOM     24  C   UNL     1     -44.296  41.851  26.103  1.00  0.00     0.070 C 
ATOM     25  H   UNL     1     -43.248  42.054  26.350  1.00  0.00     0.062 H 
ATOM     26  H   UNL     1     -44.872  42.745  26.365  1.00  0.00     0.062 H 
BRANCH  24  27
ATOM     27  O   UNL     1     -44.403  41.668  24.698  1.00  0.00    -0.392 OA
ATOM     28  H   UNL     1     -43.887  42.380  24.275  1.00  0.00     0.211 HD
ENDBRANCH  24  27
ENDBRANCH  16  24
ENDBRANCH   1  10
BRANCH   5  29
ATOM     29  C   UNL     1     -47.467  34.235  26.029  1.00  0.00     0.115 C 
ATOM     30  H   UNL     1     -47.693  34.302  24.958  1.00  0.00     0.076 H 
ATOM     31  H   UNL     1     -46.409  33.983  26.174  1.00  0.00     0.076 H 
BRANCH  29  32
ATOM     32  O   UNL     1     -48.304  33.245  26.624  1.00  0.00    -0.489 OA
BRANCH  32  33
ATOM     33  C   UNL     1     -48.797  32.265  25.806  1.00  0.00     0.122 A 
ATOM     34  C   UNL     1     -49.656  32.454  24.728  1.00  0.00    -0.019 A 
ATOM     35  C   UNL     1     -48.370  30.970  26.124  1.00  0.00     0.007 A 
ATOM     36  C   UNL     1     -50.077  31.353  23.979  1.00  0.00    -0.049 A 
ATOM     37  H   UNL     1     -50.017  33.435  24.441  1.00  0.00     0.066 H 
ATOM     38  C   UNL     1     -48.774  29.858  25.396  1.00  0.00     0.076 A 
ATOM     39  H   UNL     1     -47.699  30.821  26.967  1.00  0.00     0.069 H 
ATOM     40  C   UNL     1     -49.641  30.060  24.308  1.00  0.00     0.001 A 
ATOM     41  H   UNL     1     -50.749  31.511  23.137  1.00  0.00     0.063 H 
ATOM     42  N   UNL     1     -48.330  28.639  25.749  1.00  0.00    -0.231 NA
ATOM     43  C   UNL     1     -50.042  28.938  23.579  1.00  0.00    -0.049 A 
ATOM     44  C   UNL     1     -48.728  27.557  25.042  1.00  0.00     0.129 A 
ATOM     45  C   UNL     1     -49.579  27.679  23.948  1.00  0.00    -0.019 A 
ATOM     46  H   UNL     1     -50.705  29.033  22.725  1.00  0.00     0.063 H 
ATOM     47  H   UNL     1     -49.874  26.805  23.379  1.00  0.00     0.066 H 
BRANCH  44  48
ATOM     48  N   UNL     1     -48.244  26.290  25.417  1.00  0.00    -0.356 N 
ATOM     49  C   UNL     1     -48.703  25.493  26.518  1.00  0.00     0.021 C 
ATOM     50  C   UNL     1     -46.865  26.006  25.702  1.00  0.00     0.021 C 
ATOM     51  C   UNL     1     -47.365  24.751  26.425  1.00  0.00    -0.018 C 
ATOM     52  H   UNL     1     -48.847  26.075  27.436  1.00  0.00     0.049 H 
ATOM     53  H   UNL     1     -49.591  24.900  26.290  1.00  0.00     0.049 H 
ATOM     54  H   UNL     1     -46.262  25.834  24.808  1.00  0.00     0.049 H 
ATOM     55  H   UNL     1     -46.396  26.755  26.350  1.00  0.00     0.049 H 
ATOM     56  H   UNL     1     -47.391  23.851  25.801  1.00  0.00     0.030 H 
ATOM     57  H   UNL     1     -46.879  24.524  27.377  1.00  0.00     0.030 H 
ENDBRANCH  44  48
ENDBRANCH  32  33
ENDBRANCH  29  32
ENDBRANCH   5  29
TORSDOF 8
ENDMDL
MODEL 4
REMARK VINA RESULT:     -10.1      2.314     11.210
REMARK SMILES Nc1ncnc2c1c(CO)cn2-c1cncc(COc2ccc3ccc(N4CCC4)nc3c2)c1
REMARK SMILES IDX 13 1 14 2 15 3 16 4 17 5 34 6 12 10 2 11 3 12 7 13 4 14 6 15
REMARK SMILES IDX 8 16 5 17 11 19 1 21 9 24 10 27 18 29 19 32 20 33 21 34
REMARK SMILES IDX 33 35 22 36 32 38 23 40 31 42 24 43 26 44 25 45 27 48 28 49
REMARK SMILES IDX 30 50 29 51
REMARK H PARENT 14 7 16 8 34 9 4 18 11 20 1 22 1 23 9 25 9 26 10 28 18 30
REMARK H PARENT 18 31 21 37 33 39 22 41 24 46 25 47 28 52 28 53 30 54 30 55
REMARK H PARENT 29 56 29 57
REMARK Flexibility Score: inf
ROOT
ATOM      1  C   UNL     1     -45.815  38.395  28.075  1.00  0.00     0.066 A 
ATOM      2  C   UNL     1     -45.441  37.834  29.294  1.00  0.00     0.051 A 
ATOM      3  N   UNL     1     -45.961  36.692  29.805  1.00  0.00    -0.262 NA
ATOM      4  C   UNL     1     -46.914  36.074  29.077  1.00  0.00     0.034 A 
ATOM      5  C   UNL     1     -47.378  36.542  27.855  1.00  0.00     0.010 A 
ATOM      6  C   UNL     1     -46.801  37.719  27.350  1.00  0.00    -0.028 A 
ATOM      7  H   UNL     1     -44.677  38.260  29.935  1.00  0.00     0.086 H 
ATOM      8  H   UNL     1     -47.308  35.162  29.519  1.00  0.00     0.084 H 
ATOM      9  H   UNL     1     -47.164  38.088  26.397  1.00  0.00     0.065 H 
ENDROOT
BRANCH   1  10
ATOM     10  N   UNL     1     -45.205  39.603  27.604  1.00  0.00    -0.299 N 
ATOM     11  C   UNL     1     -42.774  42.217  27.738  1.00  0.00     0.136 A 
ATOM     12  N   UNL     1     -42.024  41.869  28.794  1.00  0.00    -0.219 NA
ATOM     13  C   UNL     1     -43.858  41.409  27.364  1.00  0.00     0.067 A 
ATOM     14  C   UNL     1     -42.358  40.753  29.462  1.00  0.00     0.120 A 
ATOM     15  C   UNL     1     -44.098  40.273  28.132  1.00  0.00     0.150 A 
ATOM     16  C   UNL     1     -44.822  41.438  26.316  1.00  0.00     0.009 A 
ATOM     17  N   UNL     1     -43.372  39.914  29.212  1.00  0.00    -0.218 NA
ATOM     18  H   UNL     1     -41.729  40.503  30.311  1.00  0.00     0.106 H 
ATOM     19  C   UNL     1     -45.630  40.332  26.501  1.00  0.00     0.017 A 
ATOM     20  H   UNL     1     -46.458  40.003  25.890  1.00  0.00     0.083 H 
BRANCH  11  21
ATOM     21  N   UNL     1     -42.416  43.388  27.068  1.00  0.00    -0.383 N 
ATOM     22  H   UNL     1     -42.286  43.151  26.086  1.00  0.00     0.158 HD
ATOM     23  H   UNL     1     -41.595  43.824  27.471  1.00  0.00     0.158 HD
ENDBRANCH  11  21
BRANCH  16  24
ATOM     24  C   UNL     1     -44.931  42.446  25.225  1.00  0.00     0.070 C 
ATOM     25  H   UNL     1     -45.050  43.452  25.644  1.00  0.00     0.062 H 
ATOM     26  H   UNL     1     -45.809  42.248  24.600  1.00  0.00     0.062 H 
BRANCH  24  27
ATOM     27  O   UNL     1     -43.791  42.441  24.378  1.00  0.00    -0.392 OA
ATOM     28  H   UNL     1     -43.122  43.019  24.791  1.00  0.00     0.211 HD
ENDBRANCH  24  27
ENDBRANCH  16  24
ENDBRANCH   1  10
BRANCH   5  29
ATOM     29  C   UNL     1     -48.411  35.782  27.065  1.00  0.00     0.115 C 
ATOM     30  H   UNL     1     -49.413  36.125  27.350  1.00  0.00     0.076 H 
ATOM     31  H   UNL     1     -48.238  35.977  26.000  1.00  0.00     0.076 H 
BRANCH  29  32
ATOM     32  O   UNL     1     -48.295  34.388  27.344  1.00  0.00    -0.489 OA
BRANCH  32  33
ATOM     33  C   UNL     1     -47.765  33.593  26.364  1.00  0.00     0.122 A 
ATOM     34  C   UNL     1     -46.661  33.895  25.573  1.00  0.00    -0.019 A 
ATOM     35  C   UNL     1     -48.430  32.376  26.178  1.00  0.00     0.007 A 
ATOM     36  C   UNL     1     -46.232  32.981  24.608  1.00  0.00    -0.049 A 
ATOM     37  H   UNL     1     -46.112  34.824  25.676  1.00  0.00     0.066 H 
ATOM     38  C   UNL     1     -48.026  31.450  25.225  1.00  0.00     0.076 A 
ATOM     39  H   UNL     1     -49.295  32.140  26.795  1.00  0.00     0.069 H 
ATOM     40  C   UNL     1     -46.908  31.763  24.431  1.00  0.00     0.001 A 
ATOM     41  H   UNL     1     -45.368  33.226  23.994  1.00  0.00     0.063 H 
ATOM     42  N   UNL     1     -48.704  30.296  25.092  1.00  0.00    -0.231 NA
ATOM     43  C   UNL     1     -46.505  30.827  23.477  1.00  0.00    -0.049 A 
ATOM     44  C   UNL     1     -48.312  29.398  24.161  1.00  0.00     0.129 A 
ATOM     45  C   UNL     1     -47.211  29.635  23.344  1.00  0.00    -0.019 A 
ATOM     46  H   UNL     1     -45.645  31.011  22.840  1.00  0.00     0.063 H 
ATOM     47  H   UNL     1     -46.895  28.897  22.616  1.00  0.00     0.066 H 
BRANCH  44  48
ATOM     48  N   UNL     1     -49.025  28.191  24.044  1.00  0.00    -0.356 N 
ATOM     49  C   UNL     1     -49.507  27.600  22.829  1.00  0.00     0.021 C 
ATOM     50  C   UNL     1     -50.247  27.906  24.744  1.00  0.00     0.021 C 
ATOM     51  C   UNL     1     -50.480  26.803  23.706  1.00  0.00    -0.018 C 
ATOM     52  H   UNL     1     -49.979  28.327  22.158  1.00  0.00     0.049 H 
ATOM     53  H   UNL     1     -48.755  27.011  22.299  1.00  0.00     0.049 H 
ATOM     54  H   UNL     1     -50.092  27.569  25.772  1.00  0.00     0.049 H 
ATOM     55  H   UNL     1     -50.967  28.731  24.709  1.00  0.00     0.049 H 
ATOM     56  H   UNL     1     -50.112  25.816  24.005  1.00  0.00     0.030 H 
ATOM     57  H   UNL     1     -51.501  26.714  23.326  1.00  0.00     0.030 H 
ENDBRANCH  44  48
ENDBRANCH  32  33
ENDBRANCH  29  32
ENDBRANCH   5  29
TORSDOF 8
ENDMDL
MODEL 5
REMARK VINA RESULT:      -9.7      2.341     11.250
REMARK SMILES Nc1ncnc2c1c(CO)cn2-c1cncc(COc2ccc3ccc(N4CCC4)nc3c2)c1
REMARK SMILES IDX 13 1 14 2 15 3 16 4 17 5 34 6 12 10 2 11 3 12 7 13 4 14 6 15
REMARK SMILES IDX 8 16 5 17 11 19 1 21 9 24 10 27 18 29 19 32 20 33 21 34
REMARK SMILES IDX 33 35 22 36 32 38 23 40 31 42 24 43 26 44 25 45 27 48 28 49
REMARK SMILES IDX 30 50 29 51
REMARK H PARENT 14 7 16 8 34 9 4 18 11 20 1 22 1 23 9 25 9 26 10 28 18 30
REMARK H PARENT 18 31 21 37 33 39 22 41 24 46 25 47 28 52 28 53 30 54 30 55
REMARK H PARENT 29 56 29 57
REMARK Flexibility Score: inf
ROOT
ATOM      1  C   UNL     1     -45.990  39.551  27.766  1.00  0.00     0.066 A 
ATOM      2  C   UNL     1     -47.248  40.143  27.692  1.00  0.00     0.051 A 
ATOM      3  N   UNL     1     -48.420  39.472  27.816  1.00  0.00    -0.262 NA
ATOM      4  C   UNL     1     -48.344  38.140  28.013  1.00  0.00     0.034 A 
ATOM      5  C   UNL     1     -47.150  37.436  28.092  1.00  0.00     0.010 A 
ATOM      6  C   UNL     1     -45.957  38.169  27.976  1.00  0.00    -0.028 A 
ATOM      7  H   UNL     1     -47.398  41.207  27.547  1.00  0.00     0.086 H 
ATOM      8  H   UNL     1     -49.304  37.637  28.107  1.00  0.00     0.084 H 
ATOM      9  H   UNL     1     -45.023  37.621  28.035  1.00  0.00     0.065 H 
ENDROOT
BRANCH   1  10
ATOM     10  N   UNL     1     -44.799  40.338  27.634  1.00  0.00    -0.299 N 
ATOM     11  C   UNL     1     -42.699  42.700  25.968  1.00  0.00     0.136 A 
ATOM     12  N   UNL     1     -43.429  43.038  24.895  1.00  0.00    -0.219 NA
ATOM     13  C   UNL     1     -43.209  41.767  26.884  1.00  0.00     0.067 A 
ATOM     14  C   UNL     1     -44.626  42.451  24.738  1.00  0.00     0.120 A 
ATOM     15  C   UNL     1     -44.466  41.234  26.615  1.00  0.00     0.150 A 
ATOM     16  C   UNL     1     -42.754  41.210  28.114  1.00  0.00     0.009 A 
ATOM     17  N   UNL     1     -45.209  41.541  25.530  1.00  0.00    -0.218 NA
ATOM     18  H   UNL     1     -45.188  42.748  23.858  1.00  0.00     0.106 H 
ATOM     19  C   UNL     1     -43.740  40.338  28.533  1.00  0.00     0.017 A 
ATOM     20  H   UNL     1     -43.766  39.747  29.437  1.00  0.00     0.083 H 
BRANCH  11  21
ATOM     21  N   UNL     1     -41.453  43.313  26.104  1.00  0.00    -0.383 N 
ATOM     22  H   UNL     1     -40.759  42.576  26.219  1.00  0.00     0.158 HD
ATOM     23  H   UNL     1     -41.435  43.980  26.866  1.00  0.00     0.158 HD
ENDBRANCH  11  21
BRANCH  16  24
ATOM     24  C   UNL     1     -41.479  41.517  28.821  1.00  0.00     0.070 C 
ATOM     25  H   UNL     1     -41.335  40.832  29.663  1.00  0.00     0.062 H 
ATOM     26  H   UNL     1     -41.496  42.534  29.227  1.00  0.00     0.062 H 
BRANCH  24  27
ATOM     27  O   UNL     1     -40.354  41.417  27.958  1.00  0.00    -0.392 OA
ATOM     28  H   UNL     1     -40.577  41.895  27.137  1.00  0.00     0.211 HD
ENDBRANCH  24  27
ENDBRANCH  16  24
ENDBRANCH   1  10
BRANCH   5  29
ATOM     29  C   UNL     1     -47.129  35.954  28.360  1.00  0.00     0.115 C 
ATOM     30  H   UNL     1     -46.148  35.548  28.085  1.00  0.00     0.076 H 
ATOM     31  H   UNL     1     -47.312  35.799  29.430  1.00  0.00     0.076 H 
BRANCH  29  32
ATOM     32  O   UNL     1     -48.137  35.314  27.580  1.00  0.00    -0.489 OA
BRANCH  32  33
ATOM     33  C   UNL     1     -47.724  34.407  26.642  1.00  0.00     0.122 A 
ATOM     34  C   UNL     1     -46.510  34.425  25.964  1.00  0.00    -0.019 A 
ATOM     35  C   UNL     1     -48.644  33.387  26.374  1.00  0.00     0.007 A 
ATOM     36  C   UNL     1     -46.224  33.428  25.029  1.00  0.00    -0.049 A 
ATOM     37  H   UNL     1     -45.763  35.194  26.133  1.00  0.00     0.066 H 
ATOM     38  C   UNL     1     -48.387  32.383  25.449  1.00  0.00     0.076 A 
ATOM     39  H   UNL     1     -49.595  33.372  26.903  1.00  0.00     0.069 H 
ATOM     40  C   UNL     1     -47.156  32.409  24.770  1.00  0.00     0.001 A 
ATOM     41  H   UNL     1     -45.272  33.450  24.504  1.00  0.00     0.063 H 
ATOM     42  N   UNL     1     -49.309  31.428  25.234  1.00  0.00    -0.231 NA
ATOM     43  C   UNL     1     -46.902  31.396  23.843  1.00  0.00    -0.049 A 
ATOM     44  C   UNL     1     -49.058  30.454  24.330  1.00  0.00     0.129 A 
ATOM     45  C   UNL     1     -47.860  30.410  23.625  1.00  0.00    -0.019 A 
ATOM     46  H   UNL     1     -45.966  31.361  23.294  1.00  0.00     0.063 H 
ATOM     47  H   UNL     1     -47.664  29.612  22.918  1.00  0.00     0.066 H 
BRANCH  44  48
ATOM     48  N   UNL     1     -50.029  29.455  24.127  1.00  0.00    -0.356 N 
ATOM     49  C   UNL     1     -49.962  28.096  24.581  1.00  0.00     0.021 C 
ATOM     50  C   UNL     1     -50.528  29.068  22.836  1.00  0.00     0.021 C 
ATOM     51  C   UNL     1     -51.011  27.779  23.510  1.00  0.00    -0.018 C 
ATOM     52  H   UNL     1     -48.980  27.639  24.417  1.00  0.00     0.049 H 
ATOM     53  H   UNL     1     -50.286  27.964  25.616  1.00  0.00     0.049 H 
ATOM     54  H   UNL     1     -51.309  29.729  22.455  1.00  0.00     0.049 H 
ATOM     55  H   UNL     1     -49.736  28.930  22.092  1.00  0.00     0.049 H 
ATOM     56  H   UNL     1     -52.046  27.817  23.866  1.00  0.00     0.030 H 
ATOM     57  H   UNL     1     -50.851  26.857  22.945  1.00  0.00     0.030 H 
ENDBRANCH  44  48
ENDBRANCH  32  33
ENDBRANCH  29  32
ENDBRANCH   5  29
TORSDOF 8
ENDMDL
MODEL 6
REMARK VINA RESULT:      -9.7      2.377     10.767
REMARK SMILES Nc1ncnc2c1c(CO)cn2-c1cncc(COc2ccc3ccc(N4CCC4)nc3c2)c1
REMARK SMILES IDX 13 1 14 2 15 3 16 4 17 5 34 6 12 10 2 11 3 12 7 13 4 14 6 15
REMARK SMILES IDX 8 16 5 17 11 19 1 21 9 24 10 27 18 29 19 32 20 33 21 34
REMARK SMILES IDX 33 35 22 36 32 38 23 40 31 42 24 43 26 44 25 45 27 48 28 49
REMARK SMILES IDX 30 50 29 51
REMARK H PARENT 14 7 16 8 34 9 4 18 11 20 1 22 1 23 9 25 9 26 10 28 18 30
REMARK H PARENT 18 31 21 37 33 39 22 41 24 46 25 47 28 52 28 53 30 54 30 55
REMARK H PARENT 29 56 29 57
REMARK Flexibility Score: inf
ROOT
ATOM      1  C   UNL     1     -44.118  40.084  28.157  1.00  0.00     0.066 A 
ATOM      2  C   UNL     1     -43.481  40.137  29.394  1.00  0.00     0.051 A 
ATOM      3  N   UNL     1     -43.524  39.151  30.322  1.00  0.00    -0.262 NA
ATOM      4  C   UNL     1     -44.247  38.054  30.017  1.00  0.00     0.034 A 
ATOM      5  C   UNL     1     -44.935  37.890  28.822  1.00  0.00     0.010 A 
ATOM      6  C   UNL     1     -44.852  38.926  27.879  1.00  0.00    -0.028 A 
ATOM      7  H   UNL     1     -42.872  40.976  29.714  1.00  0.00     0.086 H 
ATOM      8  H   UNL     1     -44.258  37.285  30.786  1.00  0.00     0.084 H 
ATOM      9  H   UNL     1     -45.390  38.801  26.946  1.00  0.00     0.065 H 
ENDROOT
BRANCH   1  10
ATOM     10  N   UNL     1     -44.012  41.170  27.227  1.00  0.00    -0.299 N 
ATOM     11  C   UNL     1     -45.367  43.745  25.155  1.00  0.00     0.136 A 
ATOM     12  N   UNL     1     -46.685  43.643  25.382  1.00  0.00    -0.219 NA
ATOM     13  C   UNL     1     -44.484  42.874  25.811  1.00  0.00     0.067 A 
ATOM     14  C   UNL     1     -47.106  42.690  26.230  1.00  0.00     0.120 A 
ATOM     15  C   UNL     1     -45.042  41.933  26.672  1.00  0.00     0.150 A 
ATOM     16  C   UNL     1     -43.070  42.712  25.847  1.00  0.00     0.009 A 
ATOM     17  N   UNL     1     -46.365  41.796  26.899  1.00  0.00    -0.218 NA
ATOM     18  H   UNL     1     -48.178  42.637  26.388  1.00  0.00     0.106 H 
ATOM     19  C   UNL     1     -42.821  41.660  26.708  1.00  0.00     0.017 A 
ATOM     20  H   UNL     1     -41.864  41.259  27.009  1.00  0.00     0.083 H 
BRANCH  11  21
ATOM     21  N   UNL     1     -44.955  44.733  24.261  1.00  0.00    -0.383 N 
ATOM     22  H   UNL     1     -44.314  44.299  23.598  1.00  0.00     0.158 HD
ATOM     23  H   UNL     1     -44.540  45.528  24.733  1.00  0.00     0.158 HD
ENDBRANCH  11  21
BRANCH  16  24
ATOM     24  C   UNL     1     -42.055  43.523  25.118  1.00  0.00     0.070 C 
ATOM     25  H   UNL     1     -42.208  43.444  24.035  1.00  0.00     0.062 H 
ATOM     26  H   UNL     1     -41.043  43.162  25.331  1.00  0.00     0.062 H 
BRANCH  24  27
ATOM     27  O   UNL     1     -42.107  44.896  25.483  1.00  0.00    -0.392 OA
ATOM     28  H   UNL     1     -41.356  45.339  25.044  1.00  0.00     0.211 HD
ENDBRANCH  24  27
ENDBRANCH  16  24
ENDBRANCH   1  10
BRANCH   5  29
ATOM     29  C   UNL     1     -45.687  36.621  28.518  1.00  0.00     0.115 C 
ATOM     30  H   UNL     1     -44.974  35.812  28.319  1.00  0.00     0.076 H 
ATOM     31  H   UNL     1     -46.301  36.371  29.392  1.00  0.00     0.076 H 
BRANCH  29  32
ATOM     32  O   UNL     1     -46.508  36.816  27.368  1.00  0.00    -0.489 OA
BRANCH  32  33
ATOM     33  C   UNL     1     -47.242  35.747  26.931  1.00  0.00     0.122 A 
ATOM     34  C   UNL     1     -48.585  35.509  27.205  1.00  0.00    -0.019 A 
ATOM     35  C   UNL     1     -46.531  34.837  26.139  1.00  0.00     0.007 A 
ATOM     36  C   UNL     1     -49.204  34.369  26.687  1.00  0.00    -0.049 A 
ATOM     37  H   UNL     1     -49.180  36.181  27.814  1.00  0.00     0.066 H 
ATOM     38  C   UNL     1     -47.122  33.696  25.612  1.00  0.00     0.076 A 
ATOM     39  H   UNL     1     -45.481  35.022  25.925  1.00  0.00     0.069 H 
ATOM     40  C   UNL     1     -48.480  33.464  25.894  1.00  0.00     0.001 A 
ATOM     41  H   UNL     1     -50.255  34.191  26.907  1.00  0.00     0.063 H 
ATOM     42  N   UNL     1     -46.389  32.858  24.858  1.00  0.00    -0.231 NA
ATOM     43  C   UNL     1     -49.069  32.316  25.360  1.00  0.00    -0.049 A 
ATOM     44  C   UNL     1     -46.965  31.745  24.350  1.00  0.00     0.129 A 
ATOM     45  C   UNL     1     -48.305  31.453  24.580  1.00  0.00    -0.019 A 
ATOM     46  H   UNL     1     -50.116  32.089  25.538  1.00  0.00     0.063 H 
ATOM     47  H   UNL     1     -48.760  30.568  24.149  1.00  0.00     0.066 H 
BRANCH  44  48
ATOM     48  N   UNL     1     -46.186  30.886  23.552  1.00  0.00    -0.356 N 
ATOM     49  C   UNL     1     -45.786  31.113  22.193  1.00  0.00     0.021 C 
ATOM     50  C   UNL     1     -46.512  29.510  23.295  1.00  0.00     0.021 C 
ATOM     51  C   UNL     1     -45.556  29.601  22.101  1.00  0.00    -0.018 C 
ATOM     52  H   UNL     1     -46.600  31.496  21.567  1.00  0.00     0.049 H 
ATOM     53  H   UNL     1     -44.895  31.736  22.097  1.00  0.00     0.049 H 
ATOM     54  H   UNL     1     -46.210  28.834  24.098  1.00  0.00     0.049 H 
ATOM     55  H   UNL     1     -47.564  29.358  23.032  1.00  0.00     0.049 H 
ATOM     56  H   UNL     1     -44.529  29.287  22.320  1.00  0.00     0.030 H 
ATOM     57  H   UNL     1     -45.897  29.122  21.180  1.00  0.00     0.030 H 
ENDBRANCH  44  48
ENDBRANCH  32  33
ENDBRANCH  29  32
ENDBRANCH   5  29
TORSDOF 8
ENDMDL
MODEL 7
REMARK VINA RESULT:      -9.7      2.547     11.516
REMARK SMILES Nc1ncnc2c1c(CO)cn2-c1cncc(COc2ccc3ccc(N4CCC4)nc3c2)c1
REMARK SMILES IDX 13 1 14 2 15 3 16 4 17 5 34 6 12 10 2 11 3 12 7 13 4 14 6 15
REMARK SMILES IDX 8 16 5 17 11 19 1 21 9 24 10 27 18 29 19 32 20 33 21 34
REMARK SMILES IDX 33 35 22 36 32 38 23 40 31 42 24 43 26 44 25 45 27 48 28 49
REMARK SMILES IDX 30 50 29 51
REMARK H PARENT 14 7 16 8 34 9 4 18 11 20 1 22 1 23 9 25 9 26 10 28 18 30
REMARK H PARENT 18 31 21 37 33 39 22 41 24 46 25 47 28 52 28 53 30 54 30 55
REMARK H PARENT 29 56 29 57
REMARK Flexibility Score: inf
ROOT
ATOM      1  C   UNL     1     -46.262  38.464  27.856  1.00  0.00     0.066 A 
ATOM      2  C   UNL     1     -47.600  38.848  27.869  1.00  0.00     0.051 A 
ATOM      3  N   UNL     1     -48.646  37.987  27.818  1.00  0.00    -0.262 NA
ATOM      4  C   UNL     1     -48.354  36.673  27.736  1.00  0.00     0.034 A 
ATOM      5  C   UNL     1     -47.061  36.169  27.703  1.00  0.00     0.010 A 
ATOM      6  C   UNL     1     -46.004  37.091  27.776  1.00  0.00    -0.028 A 
ATOM      7  H   UNL     1     -47.922  39.881  27.944  1.00  0.00     0.086 H 
ATOM      8  H   UNL     1     -49.219  36.014  27.696  1.00  0.00     0.084 H 
ATOM      9  H   UNL     1     -44.993  36.701  27.748  1.00  0.00     0.065 H 
ENDROOT
BRANCH   1  10
ATOM     10  N   UNL     1     -45.216  39.441  27.925  1.00  0.00    -0.299 N 
ATOM     11  C   UNL     1     -43.507  42.374  26.812  1.00  0.00     0.136 A 
ATOM     12  N   UNL     1     -44.263  42.783  25.782  1.00  0.00    -0.219 NA
ATOM     13  C   UNL     1     -43.871  41.219  27.520  1.00  0.00     0.067 A 
ATOM     14  C   UNL     1     -45.342  42.051  25.465  1.00  0.00     0.120 A 
ATOM     15  C   UNL     1     -45.018  40.551  27.099  1.00  0.00     0.150 A 
ATOM     16  C   UNL     1     -43.353  40.525  28.651  1.00  0.00     0.009 A 
ATOM     17  N   UNL     1     -45.781  40.930  26.053  1.00  0.00    -0.218 NA
ATOM     18  H   UNL     1     -45.930  42.412  24.626  1.00  0.00     0.106 H 
ATOM     19  C   UNL     1     -44.189  39.444  28.859  1.00  0.00     0.017 A 
ATOM     20  H   UNL     1     -44.133  38.700  29.641  1.00  0.00     0.083 H 
BRANCH  11  21
ATOM     21  N   UNL     1     -42.382  43.142  27.115  1.00  0.00    -0.383 N 
ATOM     22  H   UNL     1     -42.220  43.772  26.330  1.00  0.00     0.158 HD
ATOM     23  H   UNL     1     -41.572  42.571  27.322  1.00  0.00     0.158 HD
ENDBRANCH  11  21
BRANCH  16  24
ATOM     24  C   UNL     1     -42.160  40.896  29.462  1.00  0.00     0.070 C 
ATOM     25  H   UNL     1     -42.292  41.890  29.904  1.00  0.00     0.062 H 
ATOM     26  H   UNL     1     -41.262  40.934  28.837  1.00  0.00     0.062 H 
BRANCH  24  27
ATOM     27  O   UNL     1     -41.916  39.964  30.508  1.00  0.00    -0.392 OA
ATOM     28  H   UNL     1     -41.941  39.073  30.111  1.00  0.00     0.211 HD
ENDBRANCH  24  27
ENDBRANCH  16  24
ENDBRANCH   1  10
BRANCH   5  29
ATOM     29  C   UNL     1     -46.797  34.687  27.659  1.00  0.00     0.115 C 
ATOM     30  H   UNL     1     -45.854  34.499  27.131  1.00  0.00     0.076 H 
ATOM     31  H   UNL     1     -46.728  34.322  28.690  1.00  0.00     0.076 H 
BRANCH  29  32
ATOM     32  O   UNL     1     -47.860  34.034  26.966  1.00  0.00    -0.489 OA
BRANCH  32  33
ATOM     33  C   UNL     1     -47.516  33.110  26.016  1.00  0.00     0.122 A 
ATOM     34  C   UNL     1     -46.595  33.294  24.990  1.00  0.00    -0.019 A 
ATOM     35  C   UNL     1     -48.181  31.883  26.130  1.00  0.00     0.007 A 
ATOM     36  C   UNL     1     -46.346  32.255  24.091  1.00  0.00    -0.049 A 
ATOM     37  H   UNL     1     -46.055  34.225  24.857  1.00  0.00     0.066 H 
ATOM     38  C   UNL     1     -47.953  30.834  25.250  1.00  0.00     0.076 A 
ATOM     39  H   UNL     1     -48.903  31.739  26.932  1.00  0.00     0.069 H 
ATOM     40  C   UNL     1     -47.019  31.029  24.216  1.00  0.00     0.001 A 
ATOM     41  H   UNL     1     -45.624  32.408  23.292  1.00  0.00     0.063 H 
ATOM     42  N   UNL     1     -48.621  29.678  25.409  1.00  0.00    -0.231 NA
ATOM     43  C   UNL     1     -46.792  29.969  23.335  1.00  0.00    -0.049 A 
ATOM     44  C   UNL     1     -48.401  28.659  24.548  1.00  0.00     0.129 A 
ATOM     45  C   UNL     1     -47.487  28.775  23.506  1.00  0.00    -0.019 A 
ATOM     46  H   UNL     1     -46.078  30.059  22.523  1.00  0.00     0.063 H 
ATOM     47  H   UNL     1     -47.305  27.943  22.835  1.00  0.00     0.066 H 
BRANCH  44  48
ATOM     48  N   UNL     1     -49.099  27.452  24.737  1.00  0.00    -0.356 N 
ATOM     49  C   UNL     1     -50.373  27.295  25.379  1.00  0.00     0.021 C 
ATOM     50  C   UNL     1     -48.552  26.299  25.396  1.00  0.00     0.021 C 
ATOM     51  C   UNL     1     -49.998  25.821  25.567  1.00  0.00    -0.018 C 
ATOM     52  H   UNL     1     -50.457  27.873  26.307  1.00  0.00     0.049 H 
ATOM     53  H   UNL     1     -51.222  27.489  24.721  1.00  0.00     0.049 H 
ATOM     54  H   UNL     1     -47.920  25.686  24.748  1.00  0.00     0.049 H 
ATOM     55  H   UNL     1     -48.033  26.542  26.330  1.00  0.00     0.049 H 
ATOM     56  H   UNL     1     -50.352  25.160  24.768  1.00  0.00     0.030 H 
ATOM     57  H   UNL     1     -50.244  25.387  26.539  1.00  0.00     0.030 H 
ENDBRANCH  44  48
ENDBRANCH  32  33
ENDBRANCH  29  32
ENDBRANCH   5  29
TORSDOF 8
ENDMDL
