MODEL 1
REMARK VINA RESULT:     -10.2      0.000      0.000
REMARK SMILES Nc1ccc2ccc(OCc3cncc(-n4ccc5c(N)ncnc54)c3)cc2n1
REMARK SMILES IDX 10 1 9 4 8 5 2 6 3 7 29 8 4 9 28 11 5 12 27 14 6 15 7 17
REMARK SMILES IDX 1 20 11 23 12 24 26 25 13 26 15 28 14 30 16 32 17 33 25 34
REMARK SMILES IDX 18 35 19 37 24 38 20 40 23 41 22 42 21 44
REMARK H PARENT 10 2 10 3 3 10 4 13 27 16 6 18 7 19 1 21 1 22 12 27 26 29
REMARK H PARENT 14 31 17 36 18 39 23 43 21 45 21 46
REMARK Flexibility Score: inf
ROOT
ATOM      1  C   UNL     1     -46.711  36.599  26.713  1.00  0.00     0.115 C 
ATOM      2  H   UNL     1     -47.492  36.999  26.054  1.00  0.00     0.076 H 
ATOM      3  H   UNL     1     -45.757  36.906  26.267  1.00  0.00     0.076 H 
ENDROOT
BRANCH   1   4
ATOM      4  O   UNL     1     -46.769  37.212  28.003  1.00  0.00    -0.489 OA
BRANCH   4   5
ATOM      5  C   UNL     1     -45.726  37.997  28.411  1.00  0.00     0.122 A 
ATOM      6  C   UNL     1     -42.604  41.549  28.015  1.00  0.00     0.124 A 
ATOM      7  C   UNL     1     -42.017  41.260  29.236  1.00  0.00    -0.019 A 
ATOM      8  N   UNL     1     -43.626  40.842  27.508  1.00  0.00    -0.231 NA
ATOM      9  C   UNL     1     -42.519  40.200  29.981  1.00  0.00    -0.049 A 
ATOM     10  H   UNL     1     -41.177  41.842  29.599  1.00  0.00     0.066 H 
ATOM     11  C   UNL     1     -44.116  39.814  28.225  1.00  0.00     0.076 A 
ATOM     12  C   UNL     1     -43.590  39.453  29.481  1.00  0.00     0.001 A 
ATOM     13  H   UNL     1     -42.069  39.960  30.940  1.00  0.00     0.063 H 
ATOM     14  C   UNL     1     -45.180  39.077  27.714  1.00  0.00     0.007 A 
ATOM     15  C   UNL     1     -44.134  38.373  30.192  1.00  0.00    -0.049 A 
ATOM     16  H   UNL     1     -45.569  39.390  26.752  1.00  0.00     0.069 H 
ATOM     17  C   UNL     1     -45.199  37.653  29.654  1.00  0.00    -0.019 A 
ATOM     18  H   UNL     1     -43.736  38.088  31.163  1.00  0.00     0.063 H 
ATOM     19  H   UNL     1     -45.621  36.819  30.209  1.00  0.00     0.066 H 
BRANCH   6  20
ATOM     20  N   UNL     1     -42.120  42.592  27.229  1.00  0.00    -0.384 N 
ATOM     21  H   UNL     1     -41.451  42.183  26.581  1.00  0.00     0.158 HD
ATOM     22  H   UNL     1     -42.870  43.069  26.743  1.00  0.00     0.158 HD
ENDBRANCH   6  20
ENDBRANCH   4   5
ENDBRANCH   1   4
BRANCH   1  23
ATOM     23  C   UNL     1     -46.716  35.094  26.770  1.00  0.00     0.010 A 
ATOM     24  C   UNL     1     -46.157  34.433  27.856  1.00  0.00     0.034 A 
ATOM     25  C   UNL     1     -47.324  34.311  25.778  1.00  0.00    -0.028 A 
ATOM     26  N   UNL     1     -46.144  33.092  27.995  1.00  0.00    -0.262 NA
ATOM     27  H   UNL     1     -45.686  34.976  28.671  1.00  0.00     0.084 H 
ATOM     28  C   UNL     1     -47.331  32.915  25.878  1.00  0.00     0.066 A 
ATOM     29  H   UNL     1     -47.761  34.826  24.928  1.00  0.00     0.065 H 
ATOM     30  C   UNL     1     -46.724  32.368  27.005  1.00  0.00     0.051 A 
ATOM     31  H   UNL     1     -46.682  31.301  27.197  1.00  0.00     0.086 H 
BRANCH  28  32
ATOM     32  N   UNL     1     -47.923  32.075  24.881  1.00  0.00    -0.300 N 
ATOM     33  C   UNL     1     -49.230  31.604  24.909  1.00  0.00     0.012 A 
ATOM     34  C   UNL     1     -47.334  31.572  23.716  1.00  0.00     0.150 A 
ATOM     35  C   UNL     1     -49.462  30.816  23.806  1.00  0.00    -0.031 A 
ATOM     36  H   UNL     1     -49.903  31.833  25.723  1.00  0.00     0.082 H 
ATOM     37  C   UNL     1     -48.273  30.794  23.043  1.00  0.00     0.061 A 
ATOM     38  N   UNL     1     -46.079  31.800  23.277  1.00  0.00    -0.218 NA
ATOM     39  H   UNL     1     -50.389  30.305  23.579  1.00  0.00     0.065 H 
ATOM     40  C   UNL     1     -47.872  30.195  21.839  1.00  0.00     0.136 A 
ATOM     41  C   UNL     1     -45.809  31.176  22.122  1.00  0.00     0.120 A 
ATOM     42  N   UNL     1     -46.624  30.401  21.388  1.00  0.00    -0.219 NA
ATOM     43  H   UNL     1     -44.807  31.318  21.728  1.00  0.00     0.106 H 
BRANCH  40  44
ATOM     44  N   UNL     1     -48.704  29.403  21.061  1.00  0.00    -0.383 N 
ATOM     45  H   UNL     1     -48.472  29.374  20.078  1.00  0.00     0.158 HD
ATOM     46  H   UNL     1     -48.867  28.509  21.511  1.00  0.00     0.158 HD
ENDBRANCH  40  44
ENDBRANCH  28  32
ENDBRANCH   1  23
TORSDOF 6
ENDMDL
MODEL 2
REMARK VINA RESULT:     -10.1      1.602     10.130
REMARK SMILES Nc1ccc2ccc(OCc3cncc(-n4ccc5c(N)ncnc54)c3)cc2n1
REMARK SMILES IDX 10 1 9 4 8 5 2 6 3 7 29 8 4 9 28 11 5 12 27 14 6 15 7 17
REMARK SMILES IDX 1 20 11 23 12 24 26 25 13 26 15 28 14 30 16 32 17 33 25 34
REMARK SMILES IDX 18 35 19 37 24 38 20 40 23 41 22 42 21 44
REMARK H PARENT 10 2 10 3 3 10 4 13 27 16 6 18 7 19 1 21 1 22 12 27 26 29
REMARK H PARENT 14 31 17 36 18 39 23 43 21 45 21 46
REMARK Flexibility Score: inf
ROOT
ATOM      1  C   UNL     1     -45.921  34.569  28.007  1.00  0.00     0.115 C 
ATOM      2  H   UNL     1     -46.730  33.953  28.421  1.00  0.00     0.076 H 
ATOM      3  H   UNL     1     -44.991  34.033  28.232  1.00  0.00     0.076 H 
ENDROOT
BRANCH   1   4
ATOM      4  O   UNL     1     -46.012  34.640  26.582  1.00  0.00    -0.489 OA
BRANCH   4   5
ATOM      5  C   UNL     1     -46.814  33.746  25.925  1.00  0.00     0.122 A 
ATOM      6  C   UNL     1     -47.821  30.485  22.629  1.00  0.00     0.124 A 
ATOM      7  C   UNL     1     -49.123  30.336  23.076  1.00  0.00    -0.019 A 
ATOM      8  N   UNL     1     -46.947  31.338  23.187  1.00  0.00    -0.231 NA
ATOM      9  C   UNL     1     -49.543  31.091  24.165  1.00  0.00    -0.049 A 
ATOM     10  H   UNL     1     -49.804  29.652  22.582  1.00  0.00     0.066 H 
ATOM     11  C   UNL     1     -47.349  32.072  24.241  1.00  0.00     0.076 A 
ATOM     12  C   UNL     1     -48.651  31.981  24.771  1.00  0.00     0.001 A 
ATOM     13  H   UNL     1     -50.562  30.986  24.527  1.00  0.00     0.063 H 
ATOM     14  C   UNL     1     -46.451  32.955  24.833  1.00  0.00     0.007 A 
ATOM     15  C   UNL     1     -49.024  32.767  25.871  1.00  0.00    -0.049 A 
ATOM     16  H   UNL     1     -45.455  32.991  24.408  1.00  0.00     0.069 H 
ATOM     17  C   UNL     1     -48.103  33.643  26.443  1.00  0.00    -0.019 A 
ATOM     18  H   UNL     1     -50.025  32.701  26.289  1.00  0.00     0.063 H 
ATOM     19  H   UNL     1     -48.394  34.249  27.298  1.00  0.00     0.066 H 
BRANCH   6  20
ATOM     20  N   UNL     1     -47.365  29.759  21.530  1.00  0.00    -0.384 N 
ATOM     21  H   UNL     1     -46.375  29.584  21.687  1.00  0.00     0.158 HD
ATOM     22  H   UNL     1     -47.885  28.898  21.413  1.00  0.00     0.158 HD
ENDBRANCH   6  20
ENDBRANCH   4   5
ENDBRANCH   1   4
BRANCH   1  23
ATOM     23  C   UNL     1     -45.831  35.922  28.664  1.00  0.00     0.010 A 
ATOM     24  C   UNL     1     -46.212  36.083  29.989  1.00  0.00     0.034 A 
ATOM     25  C   UNL     1     -45.317  37.043  27.996  1.00  0.00    -0.028 A 
ATOM     26  N   UNL     1     -46.138  37.252  30.656  1.00  0.00    -0.262 NA
ATOM     27  H   UNL     1     -46.600  35.253  30.574  1.00  0.00     0.084 H 
ATOM     28  C   UNL     1     -45.227  38.279  28.647  1.00  0.00     0.066 A 
ATOM     29  H   UNL     1     -45.021  36.919  26.959  1.00  0.00     0.065 H 
ATOM     30  C   UNL     1     -45.654  38.319  29.972  1.00  0.00     0.051 A 
ATOM     31  H   UNL     1     -45.616  39.216  30.580  1.00  0.00     0.086 H 
BRANCH  28  32
ATOM     32  N   UNL     1     -44.726  39.454  28.000  1.00  0.00    -0.300 N 
ATOM     33  C   UNL     1     -45.201  39.968  26.800  1.00  0.00     0.012 A 
ATOM     34  C   UNL     1     -43.693  40.297  28.423  1.00  0.00     0.150 A 
ATOM     35  C   UNL     1     -44.486  41.093  26.462  1.00  0.00    -0.031 A 
ATOM     36  H   UNL     1     -45.996  39.487  26.247  1.00  0.00     0.082 H 
ATOM     37  C   UNL     1     -43.535  41.313  27.484  1.00  0.00     0.061 A 
ATOM     38  N   UNL     1     -42.966  40.187  29.554  1.00  0.00    -0.218 NA
ATOM     39  H   UNL     1     -44.630  41.689  25.570  1.00  0.00     0.065 H 
ATOM     40  C   UNL     1     -42.539  42.270  27.729  1.00  0.00     0.136 A 
ATOM     41  C   UNL     1     -42.046  41.153  29.680  1.00  0.00     0.120 A 
ATOM     42  N   UNL     1     -41.798  42.174  28.845  1.00  0.00    -0.219 NA
ATOM     43  H   UNL     1     -41.426  41.106  30.570  1.00  0.00     0.106 H 
BRANCH  40  44
ATOM     44  N   UNL     1     -42.278  43.341  26.885  1.00  0.00    -0.383 N 
ATOM     45  H   UNL     1     -41.451  43.874  27.113  1.00  0.00     0.158 HD
ATOM     46  H   UNL     1     -42.380  43.061  25.916  1.00  0.00     0.158 HD
ENDBRANCH  40  44
ENDBRANCH  28  32
ENDBRANCH   1  23
TORSDOF 6
ENDMDL
MODEL 3
REMARK VINA RESULT:      -9.7      1.973      9.956
REMARK SMILES Nc1ccc2ccc(OCc3cncc(-n4ccc5c(N)ncnc54)c3)cc2n1
REMARK SMILES IDX 10 1 9 4 8 5 2 6 3 7 29 8 4 9 28 11 5 12 27 14 6 15 7 17
REMARK SMILES IDX 1 20 11 23 12 24 26 25 13 26 15 28 14 30 16 32 17 33 25 34
REMARK SMILES IDX 18 35 19 37 24 38 20 40 23 41 22 42 21 44
REMARK H PARENT 10 2 10 3 3 10 4 13 27 16 6 18 7 19 1 21 1 22 12 27 26 29
REMARK H PARENT 14 31 17 36 18 39 23 43 21 45 21 46
REMARK Flexibility Score: inf
ROOT
ATOM      1  C   UNL     1     -47.739  36.263  27.032  1.00  0.00     0.115 C 
ATOM      2  H   UNL     1     -47.320  36.310  26.018  1.00  0.00     0.076 H 
ATOM      3  H   UNL     1     -48.633  36.898  27.016  1.00  0.00     0.076 H 
ENDROOT
BRANCH   1   4
ATOM      4  O   UNL     1     -48.188  34.940  27.338  1.00  0.00    -0.489 OA
BRANCH   4   5
ATOM      5  C   UNL     1     -47.865  33.919  26.487  1.00  0.00     0.122 A 
ATOM      6  C   UNL     1     -48.444  29.675  24.444  1.00  0.00     0.124 A 
ATOM      7  C   UNL     1     -47.319  29.827  23.651  1.00  0.00    -0.019 A 
ATOM      8  N   UNL     1     -48.852  30.604  25.324  1.00  0.00    -0.231 NA
ATOM      9  C   UNL     1     -46.586  31.003  23.755  1.00  0.00    -0.049 A 
ATOM     10  H   UNL     1     -47.011  29.042  22.970  1.00  0.00     0.066 H 
ATOM     11  C   UNL     1     -48.146  31.745  25.429  1.00  0.00     0.076 A 
ATOM     12  C   UNL     1     -46.994  31.992  24.655  1.00  0.00     0.001 A 
ATOM     13  H   UNL     1     -45.701  31.138  23.139  1.00  0.00     0.063 H 
ATOM     14  C   UNL     1     -48.561  32.718  26.331  1.00  0.00     0.007 A 
ATOM     15  C   UNL     1     -46.290  33.196  24.800  1.00  0.00    -0.049 A 
ATOM     16  H   UNL     1     -49.458  32.501  26.900  1.00  0.00     0.069 H 
ATOM     17  C   UNL     1     -46.730  34.153  25.712  1.00  0.00    -0.019 A 
ATOM     18  H   UNL     1     -45.402  33.397  24.206  1.00  0.00     0.063 H 
ATOM     19  H   UNL     1     -46.184  35.087  25.820  1.00  0.00     0.066 H 
BRANCH   6  20
ATOM     20  N   UNL     1     -49.197  28.504  24.384  1.00  0.00    -0.384 N 
ATOM     21  H   UNL     1     -50.092  28.754  23.970  1.00  0.00     0.158 HD
ATOM     22  H   UNL     1     -48.724  27.786  23.848  1.00  0.00     0.158 HD
ENDBRANCH   6  20
ENDBRANCH   4   5
ENDBRANCH   1   4
BRANCH   1  23
ATOM     23  C   UNL     1     -46.805  36.827  28.070  1.00  0.00     0.010 A 
ATOM     24  C   UNL     1     -46.704  36.230  29.319  1.00  0.00     0.034 A 
ATOM     25  C   UNL     1     -45.971  37.925  27.807  1.00  0.00    -0.028 A 
ATOM     26  N   UNL     1     -45.875  36.658  30.292  1.00  0.00    -0.262 NA
ATOM     27  H   UNL     1     -47.305  35.364  29.585  1.00  0.00     0.084 H 
ATOM     28  C   UNL     1     -45.098  38.406  28.789  1.00  0.00     0.066 A 
ATOM     29  H   UNL     1     -46.050  38.393  26.831  1.00  0.00     0.065 H 
ATOM     30  C   UNL     1     -45.099  37.733  30.008  1.00  0.00     0.051 A 
ATOM     31  H   UNL     1     -44.454  38.006  30.836  1.00  0.00     0.086 H 
BRANCH  28  32
ATOM     32  N   UNL     1     -44.243  39.534  28.571  1.00  0.00    -0.300 N 
ATOM     33  C   UNL     1     -43.278  39.987  29.463  1.00  0.00     0.012 A 
ATOM     34  C   UNL     1     -44.201  40.383  27.460  1.00  0.00     0.150 A 
ATOM     35  C   UNL     1     -42.651  41.095  28.944  1.00  0.00    -0.031 A 
ATOM     36  H   UNL     1     -43.117  39.512  30.421  1.00  0.00     0.082 H 
ATOM     37  C   UNL     1     -43.222  41.351  27.677  1.00  0.00     0.061 A 
ATOM     38  N   UNL     1     -44.950  40.296  26.343  1.00  0.00    -0.218 NA
ATOM     39  H   UNL     1     -41.869  41.664  29.431  1.00  0.00     0.065 H 
ATOM     40  C   UNL     1     -43.024  42.306  26.668  1.00  0.00     0.136 A 
ATOM     41  C   UNL     1     -44.676  41.260  25.453  1.00  0.00     0.120 A 
ATOM     42  N   UNL     1     -43.766  42.242  25.551  1.00  0.00    -0.219 NA
ATOM     43  H   UNL     1     -45.259  41.242  24.537  1.00  0.00     0.106 H 
BRANCH  40  44
ATOM     44  N   UNL     1     -42.079  43.319  26.745  1.00  0.00    -0.383 N 
ATOM     45  H   UNL     1     -41.297  43.223  26.114  1.00  0.00     0.158 HD
ATOM     46  H   UNL     1     -42.532  44.226  26.766  1.00  0.00     0.158 HD
ENDBRANCH  40  44
ENDBRANCH  28  32
ENDBRANCH   1  23
TORSDOF 6
ENDMDL
MODEL 4
REMARK VINA RESULT:      -9.6      1.797      9.660
REMARK SMILES Nc1ccc2ccc(OCc3cncc(-n4ccc5c(N)ncnc54)c3)cc2n1
REMARK SMILES IDX 10 1 9 4 8 5 2 6 3 7 29 8 4 9 28 11 5 12 27 14 6 15 7 17
REMARK SMILES IDX 1 20 11 23 12 24 26 25 13 26 15 28 14 30 16 32 17 33 25 34
REMARK SMILES IDX 18 35 19 37 24 38 20 40 23 41 22 42 21 44
REMARK H PARENT 10 2 10 3 3 10 4 13 27 16 6 18 7 19 1 21 1 22 12 27 26 29
REMARK H PARENT 14 31 17 36 18 39 23 43 21 45 21 46
REMARK Flexibility Score: inf
ROOT
ATOM      1  C   UNL     1     -47.574  37.434  28.428  1.00  0.00     0.115 C 
ATOM      2  H   UNL     1     -48.413  38.115  28.624  1.00  0.00     0.076 H 
ATOM      3  H   UNL     1     -47.834  36.490  28.922  1.00  0.00     0.076 H 
ENDROOT
BRANCH   1   4
ATOM      4  O   UNL     1     -47.468  37.144  27.032  1.00  0.00    -0.489 OA
BRANCH   4   5
ATOM      5  C   UNL     1     -47.674  35.860  26.606  1.00  0.00     0.122 A 
ATOM      6  C   UNL     1     -46.481  31.789  24.480  1.00  0.00     0.124 A 
ATOM      7  C   UNL     1     -47.702  31.203  24.764  1.00  0.00    -0.019 A 
ATOM      8  N   UNL     1     -46.169  33.045  24.838  1.00  0.00    -0.231 NA
ATOM      9  C   UNL     1     -48.647  31.941  25.468  1.00  0.00    -0.049 A 
ATOM     10  H   UNL     1     -47.923  30.193  24.436  1.00  0.00     0.066 H 
ATOM     11  C   UNL     1     -47.080  33.765  25.519  1.00  0.00     0.076 A 
ATOM     12  C   UNL     1     -48.345  33.248  25.861  1.00  0.00     0.001 A 
ATOM     13  H   UNL     1     -49.610  31.496  25.698  1.00  0.00     0.063 H 
ATOM     14  C   UNL     1     -46.767  35.065  25.902  1.00  0.00     0.007 A 
ATOM     15  C   UNL     1     -49.262  34.037  26.572  1.00  0.00    -0.049 A 
ATOM     16  H   UNL     1     -45.781  35.426  25.634  1.00  0.00     0.069 H 
ATOM     17  C   UNL     1     -48.921  35.336  26.942  1.00  0.00    -0.019 A 
ATOM     18  H   UNL     1     -50.240  33.646  26.843  1.00  0.00     0.063 H 
ATOM     19  H   UNL     1     -49.632  35.944  27.496  1.00  0.00     0.066 H 
BRANCH   6  20
ATOM     20  N   UNL     1     -45.513  31.090  23.761  1.00  0.00    -0.384 N 
ATOM     21  H   UNL     1     -44.866  31.784  23.392  1.00  0.00     0.158 HD
ATOM     22  H   UNL     1     -45.040  30.409  24.343  1.00  0.00     0.158 HD
ENDBRANCH   6  20
ENDBRANCH   4   5
ENDBRANCH   1   4
BRANCH   1  23
ATOM     23  C   UNL     1     -46.283  37.918  29.033  1.00  0.00     0.010 A 
ATOM     24  C   UNL     1     -45.771  37.308  30.171  1.00  0.00     0.034 A 
ATOM     25  C   UNL     1     -45.527  38.949  28.454  1.00  0.00    -0.028 A 
ATOM     26  N   UNL     1     -44.611  37.665  30.758  1.00  0.00    -0.262 NA
ATOM     27  H   UNL     1     -46.293  36.491  30.661  1.00  0.00     0.084 H 
ATOM     28  C   UNL     1     -44.319  39.355  29.032  1.00  0.00     0.066 A 
ATOM     29  H   UNL     1     -45.926  39.427  27.566  1.00  0.00     0.065 H 
ATOM     30  C   UNL     1     -43.918  38.678  30.181  1.00  0.00     0.051 A 
ATOM     31  H   UNL     1     -42.994  38.896  30.705  1.00  0.00     0.086 H 
BRANCH  28  32
ATOM     32  N   UNL     1     -43.523  40.414  28.487  1.00  0.00    -0.300 N 
ATOM     33  C   UNL     1     -42.407  40.970  29.099  1.00  0.00     0.012 A 
ATOM     34  C   UNL     1     -43.697  41.084  27.271  1.00  0.00     0.150 A 
ATOM     35  C   UNL     1     -41.894  41.970  28.308  1.00  0.00    -0.031 A 
ATOM     36  H   UNL     1     -42.065  40.641  30.071  1.00  0.00     0.082 H 
ATOM     37  C   UNL     1     -42.697  42.047  27.148  1.00  0.00     0.061 A 
ATOM     38  N   UNL     1     -44.646  40.850  26.342  1.00  0.00    -0.218 NA
ATOM     39  H   UNL     1     -41.035  42.585  28.545  1.00  0.00     0.065 H 
ATOM     40  C   UNL     1     -42.698  42.833  25.986  1.00  0.00     0.136 A 
ATOM     41  C   UNL     1     -44.549  41.660  25.280  1.00  0.00     0.120 A 
ATOM     42  N   UNL     1     -43.640  42.621  25.052  1.00  0.00    -0.219 NA
ATOM     43  H   UNL     1     -45.296  41.520  24.504  1.00  0.00     0.106 H 
BRANCH  40  44
ATOM     44  N   UNL     1     -41.758  43.820  25.726  1.00  0.00    -0.383 N 
ATOM     45  H   UNL     1     -42.140  44.715  25.456  1.00  0.00     0.158 HD
ATOM     46  H   UNL     1     -41.049  43.835  26.451  1.00  0.00     0.158 HD
ENDBRANCH  40  44
ENDBRANCH  28  32
ENDBRANCH   1  23
TORSDOF 6
ENDMDL
MODEL 5
REMARK VINA RESULT:      -9.5      1.689      9.988
REMARK SMILES Nc1ccc2ccc(OCc3cncc(-n4ccc5c(N)ncnc54)c3)cc2n1
REMARK SMILES IDX 10 1 9 4 8 5 2 6 3 7 29 8 4 9 28 11 5 12 27 14 6 15 7 17
REMARK SMILES IDX 1 20 11 23 12 24 26 25 13 26 15 28 14 30 16 32 17 33 25 34
REMARK SMILES IDX 18 35 19 37 24 38 20 40 23 41 22 42 21 44
REMARK H PARENT 10 2 10 3 3 10 4 13 27 16 6 18 7 19 1 21 1 22 12 27 26 29
REMARK H PARENT 14 31 17 36 18 39 23 43 21 45 21 46
REMARK Flexibility Score: inf
ROOT
ATOM      1  C   UNL     1     -46.132  34.265  27.128  1.00  0.00     0.115 C 
ATOM      2  H   UNL     1     -45.318  33.831  27.722  1.00  0.00     0.076 H 
ATOM      3  H   UNL     1     -45.765  34.296  26.095  1.00  0.00     0.076 H 
ENDROOT
BRANCH   1   4
ATOM      4  O   UNL     1     -47.275  33.405  27.125  1.00  0.00    -0.489 OA
BRANCH   4   5
ATOM      5  C   UNL     1     -47.537  32.657  26.010  1.00  0.00     0.122 A 
ATOM      6  C   UNL     1     -46.596  30.846  21.726  1.00  0.00     0.124 A 
ATOM      7  C   UNL     1     -47.796  30.157  21.678  1.00  0.00    -0.019 A 
ATOM      8  N   UNL     1     -46.235  31.620  22.762  1.00  0.00    -0.231 NA
ATOM      9  C   UNL     1     -48.663  30.255  22.760  1.00  0.00    -0.049 A 
ATOM     10  H   UNL     1     -48.059  29.561  20.811  1.00  0.00     0.066 H 
ATOM     11  C   UNL     1     -47.071  31.719  23.812  1.00  0.00     0.076 A 
ATOM     12  C   UNL     1     -48.309  31.047  23.856  1.00  0.00     0.001 A 
ATOM     13  H   UNL     1     -49.608  29.721  22.737  1.00  0.00     0.063 H 
ATOM     14  C   UNL     1     -46.707  32.512  24.895  1.00  0.00     0.007 A 
ATOM     15  C   UNL     1     -49.147  31.181  24.973  1.00  0.00    -0.049 A 
ATOM     16  H   UNL     1     -45.744  33.005  24.834  1.00  0.00     0.069 H 
ATOM     17  C   UNL     1     -48.755  31.982  26.043  1.00  0.00    -0.019 A 
ATOM     18  H   UNL     1     -50.102  30.664  25.017  1.00  0.00     0.063 H 
ATOM     19  H   UNL     1     -49.406  32.082  26.909  1.00  0.00     0.066 H 
BRANCH   6  20
ATOM     20  N   UNL     1     -45.706  30.789  20.655  1.00  0.00    -0.384 N 
ATOM     21  H   UNL     1     -45.898  31.600  20.072  1.00  0.00     0.158 HD
ATOM     22  H   UNL     1     -44.744  30.775  20.973  1.00  0.00     0.158 HD
ENDBRANCH   6  20
ENDBRANCH   4   5
ENDBRANCH   1   4
BRANCH   1  23
ATOM     23  C   UNL     1     -46.455  35.679  27.534  1.00  0.00     0.010 A 
ATOM     24  C   UNL     1     -47.771  36.059  27.759  1.00  0.00     0.034 A 
ATOM     25  C   UNL     1     -45.456  36.640  27.752  1.00  0.00    -0.028 A 
ATOM     26  N   UNL     1     -48.141  37.296  28.149  1.00  0.00    -0.262 NA
ATOM     27  H   UNL     1     -48.594  35.361  27.629  1.00  0.00     0.084 H 
ATOM     28  C   UNL     1     -45.794  37.938  28.152  1.00  0.00     0.066 A 
ATOM     29  H   UNL     1     -44.427  36.344  27.574  1.00  0.00     0.065 H 
ATOM     30  C   UNL     1     -47.149  38.203  28.330  1.00  0.00     0.051 A 
ATOM     31  H   UNL     1     -47.527  39.167  28.654  1.00  0.00     0.086 H 
BRANCH  28  32
ATOM     32  N   UNL     1     -44.810  38.956  28.369  1.00  0.00    -0.300 N 
ATOM     33  C   UNL     1     -44.005  39.059  29.497  1.00  0.00     0.012 A 
ATOM     34  C   UNL     1     -44.468  40.018  27.525  1.00  0.00     0.150 A 
ATOM     35  C   UNL     1     -43.186  40.158  29.382  1.00  0.00    -0.031 A 
ATOM     36  H   UNL     1     -44.084  38.364  30.321  1.00  0.00     0.082 H 
ATOM     37  C   UNL     1     -43.467  40.767  28.138  1.00  0.00     0.061 A 
ATOM     38  N   UNL     1     -44.984  40.288  26.309  1.00  0.00    -0.218 NA
ATOM     39  H   UNL     1     -42.468  40.490  30.121  1.00  0.00     0.065 H 
ATOM     40  C   UNL     1     -42.983  41.887  27.445  1.00  0.00     0.136 A 
ATOM     41  C   UNL     1     -44.449  41.379  25.745  1.00  0.00     0.120 A 
ATOM     42  N   UNL     1     -43.489  42.179  26.236  1.00  0.00    -0.219 NA
ATOM     43  H   UNL     1     -44.836  41.647  24.766  1.00  0.00     0.106 H 
BRANCH  40  44
ATOM     44  N   UNL     1     -41.981  42.717  27.930  1.00  0.00    -0.383 N 
ATOM     45  H   UNL     1     -41.052  42.506  27.597  1.00  0.00     0.158 HD
ATOM     46  H   UNL     1     -42.269  43.688  27.877  1.00  0.00     0.158 HD
ENDBRANCH  40  44
ENDBRANCH  28  32
ENDBRANCH   1  23
TORSDOF 6
ENDMDL
MODEL 6
REMARK VINA RESULT:      -9.4      1.349      2.027
REMARK SMILES Nc1ccc2ccc(OCc3cncc(-n4ccc5c(N)ncnc54)c3)cc2n1
REMARK SMILES IDX 10 1 9 4 8 5 2 6 3 7 29 8 4 9 28 11 5 12 27 14 6 15 7 17
REMARK SMILES IDX 1 20 11 23 12 24 26 25 13 26 15 28 14 30 16 32 17 33 25 34
REMARK SMILES IDX 18 35 19 37 24 38 20 40 23 41 22 42 21 44
REMARK H PARENT 10 2 10 3 3 10 4 13 27 16 6 18 7 19 1 21 1 22 12 27 26 29
REMARK H PARENT 14 31 17 36 18 39 23 43 21 45 21 46
REMARK Flexibility Score: inf
ROOT
ATOM      1  C   UNL     1     -46.258  36.913  26.792  1.00  0.00     0.115 C 
ATOM      2  H   UNL     1     -46.413  37.709  26.052  1.00  0.00     0.076 H 
ATOM      3  H   UNL     1     -45.257  36.510  26.592  1.00  0.00     0.076 H 
ENDROOT
BRANCH   1   4
ATOM      4  O   UNL     1     -46.220  37.448  28.117  1.00  0.00    -0.489 OA
BRANCH   4   5
ATOM      5  C   UNL     1     -45.235  38.340  28.443  1.00  0.00     0.122 A 
ATOM      6  C   UNL     1     -42.476  42.140  27.763  1.00  0.00     0.124 A 
ATOM      7  C   UNL     1     -41.807  41.954  28.962  1.00  0.00    -0.019 A 
ATOM      8  N   UNL     1     -43.452  41.325  27.334  1.00  0.00    -0.231 NA
ATOM      9  C   UNL     1     -42.173  40.883  29.768  1.00  0.00    -0.049 A 
ATOM     10  H   UNL     1     -41.008  42.623  29.260  1.00  0.00     0.066 H 
ATOM     11  C   UNL     1     -43.810  40.286  28.111  1.00  0.00     0.076 A 
ATOM     12  C   UNL     1     -43.193  40.023  29.350  1.00  0.00     0.001 A 
ATOM     13  H   UNL     1     -41.658  40.723  30.711  1.00  0.00     0.063 H 
ATOM     14  C   UNL     1     -44.825  39.436  27.681  1.00  0.00     0.007 A 
ATOM     15  C   UNL     1     -43.601  38.928  30.125  1.00  0.00    -0.049 A 
ATOM     16  H   UNL     1     -45.287  39.675  26.730  1.00  0.00     0.069 H 
ATOM     17  C   UNL     1     -44.620  38.094  29.669  1.00  0.00    -0.019 A 
ATOM     18  H   UNL     1     -43.133  38.719  31.084  1.00  0.00     0.063 H 
ATOM     19  H   UNL     1     -44.936  37.247  30.273  1.00  0.00     0.066 H 
BRANCH   6  20
ATOM     20  N   UNL     1     -42.128  43.191  26.917  1.00  0.00    -0.384 N 
ATOM     21  H   UNL     1     -41.456  42.818  26.250  1.00  0.00     0.158 HD
ATOM     22  H   UNL     1     -42.941  43.578  26.454  1.00  0.00     0.158 HD
ENDBRANCH   6  20
ENDBRANCH   4   5
ENDBRANCH   1   4
BRANCH   1  23
ATOM     23  C   UNL     1     -47.238  35.780  26.637  1.00  0.00     0.010 A 
ATOM     24  C   UNL     1     -48.478  35.838  27.260  1.00  0.00     0.034 A 
ATOM     25  C   UNL     1     -46.970  34.665  25.829  1.00  0.00    -0.028 A 
ATOM     26  N   UNL     1     -49.419  34.879  27.151  1.00  0.00    -0.262 NA
ATOM     27  H   UNL     1     -48.761  36.680  27.886  1.00  0.00     0.084 H 
ATOM     28  C   UNL     1     -47.916  33.644  25.690  1.00  0.00     0.066 A 
ATOM     29  H   UNL     1     -46.001  34.619  25.342  1.00  0.00     0.065 H 
ATOM     30  C   UNL     1     -49.117  33.807  26.377  1.00  0.00     0.051 A 
ATOM     31  H   UNL     1     -49.928  33.090  26.332  1.00  0.00     0.086 H 
BRANCH  28  32
ATOM     32  N   UNL     1     -47.680  32.480  24.890  1.00  0.00    -0.300 N 
ATOM     33  C   UNL     1     -46.426  31.993  24.540  1.00  0.00     0.012 A 
ATOM     34  C   UNL     1     -48.624  31.623  24.315  1.00  0.00     0.150 A 
ATOM     35  C   UNL     1     -46.566  30.872  23.757  1.00  0.00    -0.031 A 
ATOM     36  H   UNL     1     -45.515  32.490  24.845  1.00  0.00     0.082 H 
ATOM     37  C   UNL     1     -47.950  30.626  23.613  1.00  0.00     0.061 A 
ATOM     38  N   UNL     1     -49.966  31.705  24.419  1.00  0.00    -0.218 NA
ATOM     39  H   UNL     1     -45.755  30.296  23.329  1.00  0.00     0.065 H 
ATOM     40  C   UNL     1     -48.727  29.659  22.958  1.00  0.00     0.136 A 
ATOM     41  C   UNL     1     -50.602  30.733  23.752  1.00  0.00     0.120 A 
ATOM     42  N   UNL     1     -50.066  29.728  23.042  1.00  0.00    -0.219 NA
ATOM     43  H   UNL     1     -51.687  30.758  23.795  1.00  0.00     0.106 H 
BRANCH  40  44
ATOM     44  N   UNL     1     -48.191  28.605  22.232  1.00  0.00    -0.383 N 
ATOM     45  H   UNL     1     -47.183  28.595  22.173  1.00  0.00     0.158 HD
ATOM     46  H   UNL     1     -48.634  27.732  22.494  1.00  0.00     0.158 HD
ENDBRANCH  40  44
ENDBRANCH  28  32
ENDBRANCH   1  23
TORSDOF 6
ENDMDL
MODEL 7
REMARK VINA RESULT:      -9.3      2.731     10.564
REMARK SMILES Nc1ccc2ccc(OCc3cncc(-n4ccc5c(N)ncnc54)c3)cc2n1
REMARK SMILES IDX 10 1 9 4 8 5 2 6 3 7 29 8 4 9 28 11 5 12 27 14 6 15 7 17
REMARK SMILES IDX 1 20 11 23 12 24 26 25 13 26 15 28 14 30 16 32 17 33 25 34
REMARK SMILES IDX 18 35 19 37 24 38 20 40 23 41 22 42 21 44
REMARK H PARENT 10 2 10 3 3 10 4 13 27 16 6 18 7 19 1 21 1 22 12 27 26 29
REMARK H PARENT 14 31 17 36 18 39 23 43 21 45 21 46
REMARK Flexibility Score: inf
ROOT
ATOM      1  C   UNL     1     -47.143  33.752  25.805  1.00  0.00     0.115 C 
ATOM      2  H   UNL     1     -46.550  33.081  26.439  1.00  0.00     0.076 H 
ATOM      3  H   UNL     1     -46.504  33.998  24.948  1.00  0.00     0.076 H 
ENDROOT
BRANCH   1   4
ATOM      4  O   UNL     1     -48.286  33.076  25.276  1.00  0.00    -0.489 OA
BRANCH   4   5
ATOM      5  C   UNL     1     -48.188  31.744  24.979  1.00  0.00     0.122 A 
ATOM      6  C   UNL     1     -48.819  27.106  25.753  1.00  0.00     0.124 A 
ATOM      7  C   UNL     1     -48.202  26.753  24.565  1.00  0.00    -0.019 A 
ATOM      8  N   UNL     1     -48.964  28.378  26.155  1.00  0.00    -0.231 NA
ATOM      9  C   UNL     1     -47.724  27.764  23.738  1.00  0.00    -0.049 A 
ATOM     10  H   UNL     1     -48.085  25.711  24.288  1.00  0.00     0.066 H 
ATOM     11  C   UNL     1     -48.503  29.361  25.359  1.00  0.00     0.076 A 
ATOM     12  C   UNL     1     -47.870  29.098  24.128  1.00  0.00     0.001 A 
ATOM     13  H   UNL     1     -47.237  27.503  22.803  1.00  0.00     0.063 H 
ATOM     14  C   UNL     1     -48.652  30.684  25.761  1.00  0.00     0.007 A 
ATOM     15  C   UNL     1     -47.405  30.155  23.333  1.00  0.00    -0.049 A 
ATOM     16  H   UNL     1     -49.155  30.851  26.706  1.00  0.00     0.069 H 
ATOM     17  C   UNL     1     -47.568  31.472  23.761  1.00  0.00    -0.019 A 
ATOM     18  H   UNL     1     -46.917  29.963  22.380  1.00  0.00     0.063 H 
ATOM     19  H   UNL     1     -47.209  32.289  23.140  1.00  0.00     0.066 H 
BRANCH   6  20
ATOM     20  N   UNL     1     -49.298  26.123  26.618  1.00  0.00    -0.384 N 
ATOM     21  H   UNL     1     -49.285  26.526  27.552  1.00  0.00     0.158 HD
ATOM     22  H   UNL     1     -50.226  25.817  26.354  1.00  0.00     0.158 HD
ENDBRANCH   6  20
ENDBRANCH   4   5
ENDBRANCH   1   4
BRANCH   1  23
ATOM     23  C   UNL     1     -47.486  35.046  26.495  1.00  0.00     0.010 A 
ATOM     24  C   UNL     1     -48.718  35.203  27.116  1.00  0.00     0.034 A 
ATOM     25  C   UNL     1     -46.574  36.109  26.588  1.00  0.00    -0.028 A 
ATOM     26  N   UNL     1     -49.092  36.318  27.776  1.00  0.00    -0.262 NA
ATOM     27  H   UNL     1     -49.466  34.414  27.101  1.00  0.00     0.084 H 
ATOM     28  C   UNL     1     -46.921  37.287  27.258  1.00  0.00     0.066 A 
ATOM     29  H   UNL     1     -45.611  35.988  26.102  1.00  0.00     0.065 H 
ATOM     30  C   UNL     1     -48.191  37.331  27.827  1.00  0.00     0.051 A 
ATOM     31  H   UNL     1     -48.562  38.184  28.383  1.00  0.00     0.086 H 
BRANCH  28  32
ATOM     32  N   UNL     1     -46.029  38.403  27.363  1.00  0.00    -0.300 N 
ATOM     33  C   UNL     1     -45.936  39.438  26.440  1.00  0.00     0.012 A 
ATOM     34  C   UNL     1     -45.102  38.674  28.374  1.00  0.00     0.150 A 
ATOM     35  C   UNL     1     -44.972  40.332  26.843  1.00  0.00    -0.031 A 
ATOM     36  H   UNL     1     -46.538  39.460  25.543  1.00  0.00     0.082 H 
ATOM     37  C   UNL     1     -44.442  39.861  28.067  1.00  0.00     0.061 A 
ATOM     38  N   UNL     1     -44.873  37.942  29.484  1.00  0.00    -0.218 NA
ATOM     39  H   UNL     1     -44.676  41.225  26.308  1.00  0.00     0.065 H 
ATOM     40  C   UNL     1     -43.464  40.309  28.967  1.00  0.00     0.136 A 
ATOM     41  C   UNL     1     -43.918  38.463  30.266  1.00  0.00     0.120 A 
ATOM     42  N   UNL     1     -43.214  39.591  30.074  1.00  0.00    -0.219 NA
ATOM     43  H   UNL     1     -43.687  37.908  31.170  1.00  0.00     0.106 H 
BRANCH  40  44
ATOM     44  N   UNL     1     -42.737  41.478  28.792  1.00  0.00    -0.383 N 
ATOM     45  H   UNL     1     -41.767  41.425  29.069  1.00  0.00     0.158 HD
ATOM     46  H   UNL     1     -42.923  41.878  27.880  1.00  0.00     0.158 HD
ENDBRANCH  40  44
ENDBRANCH  28  32
ENDBRANCH   1  23
TORSDOF 6
ENDMDL
