MODEL 1
REMARK VINA RESULT:     -11.2      0.000      0.000
REMARK SMILES Cc1nc(-c2cn(-c3cncc(COc4ccc5ccc(N6CCC6)nc5c4)c3)c3ncnc(N)c23)co1
REMARK SMILES IDX 8 1 9 2 10 3 11 4 12 5 29 6 7 10 5 11 6 12 36 13 30 15 34 16
REMARK SMILES IDX 31 17 33 18 32 19 4 21 2 22 3 23 38 24 37 25 1 27 35 31
REMARK SMILES IDX 13 34 14 37 15 38 16 39 28 40 17 41 27 43 18 45 26 47 19 48
REMARK SMILES IDX 21 49 20 50 22 53 23 54 25 55 24 56
REMARK H PARENT 9 7 11 8 29 9 6 14 32 20 37 26 1 28 1 29 1 30 35 32 35 33
REMARK H PARENT 13 35 13 36 16 42 28 44 17 46 19 51 20 52 23 57 23 58 25 59
REMARK H PARENT 25 60 24 61 24 62
REMARK Flexibility Score: inf
ROOT
ATOM      1  C   UNL     1     -45.760  38.278  28.046  1.00  0.00     0.066 A 
ATOM      2  C   UNL     1     -45.704  37.840  29.364  1.00  0.00     0.051 A 
ATOM      3  N   UNL     1     -46.314  36.714  29.817  1.00  0.00    -0.262 NA
ATOM      4  C   UNL     1     -47.023  35.992  28.923  1.00  0.00     0.034 A 
ATOM      5  C   UNL     1     -47.133  36.321  27.581  1.00  0.00     0.010 A 
ATOM      6  C   UNL     1     -46.475  37.479  27.142  1.00  0.00    -0.028 A 
ATOM      7  H   UNL     1     -45.193  38.381  30.151  1.00  0.00     0.086 H 
ATOM      8  H   UNL     1     -47.519  35.116  29.333  1.00  0.00     0.084 H 
ATOM      9  H   UNL     1     -46.538  37.731  26.089  1.00  0.00     0.065 H 
ENDROOT
BRANCH   1  10
ATOM     10  N   UNL     1     -45.149  39.500  27.621  1.00  0.00    -0.299 N 
ATOM     11  C   UNL     1     -44.778  41.382  26.429  1.00  0.00     0.035 A 
ATOM     12  C   UNL     1     -45.556  40.248  26.527  1.00  0.00     0.021 A 
ATOM     13  C   UNL     1     -43.818  41.337  27.475  1.00  0.00     0.071 A 
ATOM     14  H   UNL     1     -46.406  39.956  25.928  1.00  0.00     0.083 H 
ATOM     15  C   UNL     1     -44.077  40.175  28.205  1.00  0.00     0.150 A 
ATOM     16  C   UNL     1     -42.741  42.128  27.914  1.00  0.00     0.137 A 
ATOM     17  N   UNL     1     -43.377  39.769  29.284  1.00  0.00    -0.218 NA
ATOM     18  N   UNL     1     -42.048  41.752  29.005  1.00  0.00    -0.219 NA
ATOM     19  C   UNL     1     -42.393  40.611  29.616  1.00  0.00     0.120 A 
ATOM     20  H   UNL     1     -41.800  40.337  30.483  1.00  0.00     0.106 H 
BRANCH  11  21
ATOM     21  C   UNL     1     -44.943  42.434  25.431  1.00  0.00     0.111 A 
ATOM     22  C   UNL     1     -44.491  43.694  23.790  1.00  0.00     0.191 A 
ATOM     23  N   UNL     1     -44.006  42.660  24.450  1.00  0.00    -0.214 NA
ATOM     24  O   UNL     1     -45.679  44.173  24.272  1.00  0.00    -0.449 OA
ATOM     25  C   UNL     1     -45.959  43.354  25.323  1.00  0.00     0.119 A 
ATOM     26  H   UNL     1     -46.870  43.556  25.863  1.00  0.00     0.107 H 
BRANCH  22  27
ATOM     27  C   UNL     1     -43.928  44.396  22.619  1.00  0.00     0.013 C 
ATOM     28  H   UNL     1     -44.329  45.412  22.550  1.00  0.00     0.033 H 
ATOM     29  H   UNL     1     -42.840  44.461  22.698  1.00  0.00     0.033 H 
ATOM     30  H   UNL     1     -44.181  43.864  21.697  1.00  0.00     0.033 H 
ENDBRANCH  22  27
ENDBRANCH  11  21
BRANCH  16  31
ATOM     31  N   UNL     1     -42.325  43.294  27.290  1.00  0.00    -0.383 N 
ATOM     32  H   UNL     1     -41.575  43.774  27.788  1.00  0.00     0.158 HD
ATOM     33  H   UNL     1     -42.199  43.158  26.296  1.00  0.00     0.158 HD
ENDBRANCH  16  31
ENDBRANCH   1  10
BRANCH   5  34
ATOM     34  C   UNL     1     -47.957  35.476  26.645  1.00  0.00     0.115 C 
ATOM     35  H   UNL     1     -47.429  35.421  25.684  1.00  0.00     0.076 H 
ATOM     36  H   UNL     1     -48.928  35.925  26.408  1.00  0.00     0.076 H 
BRANCH  34  37
ATOM     37  O   UNL     1     -48.102  34.129  27.110  1.00  0.00    -0.489 OA
BRANCH  37  38
ATOM     38  C   UNL     1     -47.858  33.109  26.231  1.00  0.00     0.122 A 
ATOM     39  C   UNL     1     -46.886  33.381  25.272  1.00  0.00    -0.019 A 
ATOM     40  C   UNL     1     -48.489  31.863  26.226  1.00  0.00     0.007 A 
ATOM     41  C   UNL     1     -46.522  32.405  24.346  1.00  0.00    -0.049 A 
ATOM     42  H   UNL     1     -46.397  34.352  25.254  1.00  0.00     0.066 H 
ATOM     43  C   UNL     1     -48.125  30.861  25.336  1.00  0.00     0.076 A 
ATOM     44  H   UNL     1     -49.285  31.628  26.921  1.00  0.00     0.069 H 
ATOM     45  C   UNL     1     -47.129  31.141  24.383  1.00  0.00     0.001 A 
ATOM     46  H   UNL     1     -45.753  32.631  23.610  1.00  0.00     0.063 H 
ATOM     47  N   UNL     1     -48.727  29.664  25.427  1.00  0.00    -0.231 NA
ATOM     48  C   UNL     1     -46.779  30.122  23.494  1.00  0.00    -0.049 A 
ATOM     49  C   UNL     1     -48.361  28.674  24.579  1.00  0.00     0.129 A 
ATOM     50  C   UNL     1     -47.402  28.881  23.594  1.00  0.00    -0.019 A 
ATOM     51  H   UNL     1     -46.024  30.282  22.729  1.00  0.00     0.063 H 
ATOM     52  H   UNL     1     -47.136  28.088  22.904  1.00  0.00     0.066 H 
BRANCH  49  53
ATOM     53  N   UNL     1     -48.983  27.416  24.706  1.00  0.00    -0.356 N 
ATOM     54  C   UNL     1     -50.300  27.227  25.244  1.00  0.00     0.021 C 
ATOM     55  C   UNL     1     -48.462  26.282  25.415  1.00  0.00     0.021 C 
ATOM     56  C   UNL     1     -49.904  25.766  25.471  1.00  0.00    -0.018 C 
ATOM     57  H   UNL     1     -51.097  27.399  24.517  1.00  0.00     0.049 H 
ATOM     58  H   UNL     1     -50.473  27.805  26.157  1.00  0.00     0.049 H 
ATOM     59  H   UNL     1     -47.766  25.680  24.828  1.00  0.00     0.049 H 
ATOM     60  H   UNL     1     -48.028  26.545  26.386  1.00  0.00     0.049 H 
ATOM     61  H   UNL     1     -50.176  25.090  24.652  1.00  0.00     0.030 H 
ATOM     62  H   UNL     1     -50.219  25.330  26.424  1.00  0.00     0.030 H 
ENDBRANCH  49  53
ENDBRANCH  37  38
ENDBRANCH  34  37
ENDBRANCH   5  34
TORSDOF 8
ENDMDL
MODEL 2
REMARK VINA RESULT:     -10.6      2.484     12.550
REMARK SMILES Cc1nc(-c2cn(-c3cncc(COc4ccc5ccc(N6CCC6)nc5c4)c3)c3ncnc(N)c23)co1
REMARK SMILES IDX 8 1 9 2 10 3 11 4 12 5 29 6 7 10 5 11 6 12 36 13 30 15 34 16
REMARK SMILES IDX 31 17 33 18 32 19 4 21 2 22 3 23 38 24 37 25 1 27 35 31
REMARK SMILES IDX 13 34 14 37 15 38 16 39 28 40 17 41 27 43 18 45 26 47 19 48
REMARK SMILES IDX 21 49 20 50 22 53 23 54 25 55 24 56
REMARK H PARENT 9 7 11 8 29 9 6 14 32 20 37 26 1 28 1 29 1 30 35 32 35 33
REMARK H PARENT 13 35 13 36 16 42 28 44 17 46 19 51 20 52 23 57 23 58 25 59
REMARK H PARENT 25 60 24 61 24 62
REMARK Flexibility Score: inf
ROOT
ATOM      1  C   UNL     1     -47.909  32.482  25.485  1.00  0.00     0.066 A 
ATOM      2  C   UNL     1     -46.651  32.908  25.076  1.00  0.00     0.051 A 
ATOM      3  N   UNL     1     -46.140  34.138  25.347  1.00  0.00    -0.262 NA
ATOM      4  C   UNL     1     -46.918  34.990  26.049  1.00  0.00     0.034 A 
ATOM      5  C   UNL     1     -48.179  34.667  26.525  1.00  0.00     0.010 A 
ATOM      6  C   UNL     1     -48.669  33.384  26.243  1.00  0.00    -0.028 A 
ATOM      7  H   UNL     1     -45.982  32.304  24.476  1.00  0.00     0.086 H 
ATOM      8  H   UNL     1     -46.483  35.971  26.218  1.00  0.00     0.084 H 
ATOM      9  H   UNL     1     -49.646  33.117  26.631  1.00  0.00     0.065 H 
ENDROOT
BRANCH   1  10
ATOM     10  N   UNL     1     -48.432  31.198  25.131  1.00  0.00    -0.299 N 
ATOM     11  C   UNL     1     -48.890  28.989  25.250  1.00  0.00     0.035 A 
ATOM     12  C   UNL     1     -48.208  30.030  25.843  1.00  0.00     0.021 A 
ATOM     13  C   UNL     1     -49.542  29.504  24.097  1.00  0.00     0.071 A 
ATOM     14  H   UNL     1     -47.630  30.027  26.755  1.00  0.00     0.083 H 
ATOM     15  C   UNL     1     -49.257  30.871  24.054  1.00  0.00     0.150 A 
ATOM     16  C   UNL     1     -50.345  28.998  23.059  1.00  0.00     0.137 A 
ATOM     17  N   UNL     1     -49.692  31.721  23.103  1.00  0.00    -0.218 NA
ATOM     18  N   UNL     1     -50.811  29.836  22.115  1.00  0.00    -0.219 NA
ATOM     19  C   UNL     1     -50.461  31.127  22.183  1.00  0.00     0.120 A 
ATOM     20  H   UNL     1     -50.847  31.766  21.395  1.00  0.00     0.106 H 
BRANCH  11  21
ATOM     21  C   UNL     1     -48.934  27.618  25.746  1.00  0.00     0.111 A 
ATOM     22  C   UNL     1     -48.250  25.695  26.313  1.00  0.00     0.191 A 
ATOM     23  N   UNL     1     -47.796  26.858  25.887  1.00  0.00    -0.214 NA
ATOM     24  O   UNL     1     -49.609  25.630  26.454  1.00  0.00    -0.449 OA
ATOM     25  C   UNL     1     -50.035  26.871  26.090  1.00  0.00     0.119 A 
ATOM     26  H   UNL     1     -51.099  27.046  26.125  1.00  0.00     0.107 H 
BRANCH  22  27
ATOM     27  C   UNL     1     -47.497  24.470  26.648  1.00  0.00     0.013 C 
ATOM     28  H   UNL     1     -46.921  24.123  25.785  1.00  0.00     0.033 H 
ATOM     29  H   UNL     1     -46.802  24.660  27.471  1.00  0.00     0.033 H 
ATOM     30  H   UNL     1     -48.182  23.671  26.947  1.00  0.00     0.033 H 
ENDBRANCH  22  27
ENDBRANCH  11  21
BRANCH  16  31
ATOM     31  N   UNL     1     -50.698  27.663  22.929  1.00  0.00    -0.383 N 
ATOM     32  H   UNL     1     -51.670  27.477  23.178  1.00  0.00     0.158 HD
ATOM     33  H   UNL     1     -50.368  27.275  22.055  1.00  0.00     0.158 HD
ENDBRANCH  16  31
ENDBRANCH   1  10
BRANCH   5  34
ATOM     34  C   UNL     1     -48.997  35.678  27.286  1.00  0.00     0.115 C 
ATOM     35  H   UNL     1     -49.936  35.195  27.588  1.00  0.00     0.076 H 
ATOM     36  H   UNL     1     -49.303  36.530  26.669  1.00  0.00     0.076 H 
BRANCH  34  37
ATOM     37  O   UNL     1     -48.351  36.107  28.490  1.00  0.00    -0.489 OA
BRANCH  37  38
ATOM     38  C   UNL     1     -47.383  37.070  28.398  1.00  0.00     0.122 A 
ATOM     39  C   UNL     1     -46.276  36.870  29.220  1.00  0.00    -0.019 A 
ATOM     40  C   UNL     1     -47.424  38.197  27.575  1.00  0.00     0.007 A 
ATOM     41  C   UNL     1     -45.206  37.763  29.185  1.00  0.00    -0.049 A 
ATOM     42  H   UNL     1     -46.237  36.005  29.878  1.00  0.00     0.066 H 
ATOM     43  C   UNL     1     -46.360  39.086  27.497  1.00  0.00     0.076 A 
ATOM     44  H   UNL     1     -48.286  38.419  26.959  1.00  0.00     0.069 H 
ATOM     45  C   UNL     1     -45.239  38.864  28.317  1.00  0.00     0.001 A 
ATOM     46  H   UNL     1     -44.345  37.585  29.826  1.00  0.00     0.063 H 
ATOM     47  N   UNL     1     -46.437  40.115  26.635  1.00  0.00    -0.231 NA
ATOM     48  C   UNL     1     -44.181  39.772  28.228  1.00  0.00    -0.049 A 
ATOM     49  C   UNL     1     -45.395  40.972  26.536  1.00  0.00     0.129 A 
ATOM     50  C   UNL     1     -44.262  40.833  27.331  1.00  0.00    -0.019 A 
ATOM     51  H   UNL     1     -43.294  39.658  28.844  1.00  0.00     0.063 H 
ATOM     52  H   UNL     1     -43.445  41.542  27.260  1.00  0.00     0.066 H 
BRANCH  49  53
ATOM     53  N   UNL     1     -45.480  42.030  25.608  1.00  0.00    -0.356 N 
ATOM     54  C   UNL     1     -44.382  42.463  24.789  1.00  0.00     0.021 C 
ATOM     55  C   UNL     1     -45.880  43.378  25.895  1.00  0.00     0.021 C 
ATOM     56  C   UNL     1     -45.149  43.776  24.608  1.00  0.00    -0.018 C 
ATOM     57  H   UNL     1     -44.246  41.861  23.889  1.00  0.00     0.049 H 
ATOM     58  H   UNL     1     -43.445  42.551  25.347  1.00  0.00     0.049 H 
ATOM     59  H   UNL     1     -46.962  43.523  25.890  1.00  0.00     0.049 H 
ATOM     60  H   UNL     1     -45.438  43.770  26.817  1.00  0.00     0.049 H 
ATOM     61  H   UNL     1     -45.786  43.809  23.717  1.00  0.00     0.030 H 
ATOM     62  H   UNL     1     -44.550  44.688  24.662  1.00  0.00     0.030 H 
ENDBRANCH  49  53
ENDBRANCH  37  38
ENDBRANCH  34  37
ENDBRANCH   5  34
TORSDOF 8
ENDMDL
MODEL 3
REMARK VINA RESULT:     -10.5      1.644      2.579
REMARK SMILES Cc1nc(-c2cn(-c3cncc(COc4ccc5ccc(N6CCC6)nc5c4)c3)c3ncnc(N)c23)co1
REMARK SMILES IDX 8 1 9 2 10 3 11 4 12 5 29 6 7 10 5 11 6 12 36 13 30 15 34 16
REMARK SMILES IDX 31 17 33 18 32 19 4 21 2 22 3 23 38 24 37 25 1 27 35 31
REMARK SMILES IDX 13 34 14 37 15 38 16 39 28 40 17 41 27 43 18 45 26 47 19 48
REMARK SMILES IDX 21 49 20 50 22 53 23 54 25 55 24 56
REMARK H PARENT 9 7 11 8 29 9 6 14 32 20 37 26 1 28 1 29 1 30 35 32 35 33
REMARK H PARENT 13 35 13 36 16 42 28 44 17 46 19 51 20 52 23 57 23 58 25 59
REMARK H PARENT 25 60 24 61 24 62
REMARK Flexibility Score: inf
ROOT
ATOM      1  C   UNL     1     -47.086  37.068  27.356  1.00  0.00     0.066 A 
ATOM      2  C   UNL     1     -48.424  37.176  27.718  1.00  0.00     0.051 A 
ATOM      3  N   UNL     1     -49.334  36.177  27.575  1.00  0.00    -0.262 NA
ATOM      4  C   UNL     1     -48.898  35.017  27.037  1.00  0.00     0.034 A 
ATOM      5  C   UNL     1     -47.584  34.789  26.659  1.00  0.00     0.010 A 
ATOM      6  C   UNL     1     -46.668  35.835  26.837  1.00  0.00    -0.028 A 
ATOM      7  H   UNL     1     -48.863  38.083  28.116  1.00  0.00     0.086 H 
ATOM      8  H   UNL     1     -49.663  34.256  26.913  1.00  0.00     0.084 H 
ATOM      9  H   UNL     1     -45.633  35.656  26.564  1.00  0.00     0.065 H 
ENDROOT
BRANCH   1  10
ATOM     10  N   UNL     1     -46.173  38.164  27.472  1.00  0.00    -0.299 N 
ATOM     11  C   UNL     1     -45.117  40.102  26.994  1.00  0.00     0.035 A 
ATOM     12  C   UNL     1     -46.060  39.198  26.556  1.00  0.00     0.021 A 
ATOM     13  C   UNL     1     -44.584  39.609  28.216  1.00  0.00     0.071 A 
ATOM     14  H   UNL     1     -46.697  39.253  25.685  1.00  0.00     0.083 H 
ATOM     15  C   UNL     1     -45.262  38.421  28.497  1.00  0.00     0.150 A 
ATOM     16  C   UNL     1     -43.600  40.004  29.140  1.00  0.00     0.137 A 
ATOM     17  N   UNL     1     -45.042  37.643  29.575  1.00  0.00    -0.218 NA
ATOM     18  N   UNL     1     -43.385  39.254  30.236  1.00  0.00    -0.219 NA
ATOM     19  C   UNL     1     -44.100  38.131  30.389  1.00  0.00     0.120 A 
ATOM     20  H   UNL     1     -43.885  37.548  31.279  1.00  0.00     0.106 H 
BRANCH  11  21
ATOM     21  C   UNL     1     -44.760  41.344  26.318  1.00  0.00     0.111 A 
ATOM     22  C   UNL     1     -44.476  43.421  26.013  1.00  0.00     0.191 A 
ATOM     23  N   UNL     1     -44.833  42.564  26.949  1.00  0.00    -0.214 NA
ATOM     24  O   UNL     1     -44.181  42.854  24.803  1.00  0.00    -0.449 OA
ATOM     25  C   UNL     1     -44.365  41.521  25.014  1.00  0.00     0.119 A 
ATOM     26  H   UNL     1     -44.186  40.870  24.172  1.00  0.00     0.107 H 
BRANCH  22  27
ATOM     27  C   UNL     1     -44.358  44.891  26.093  1.00  0.00     0.013 C 
ATOM     28  H   UNL     1     -43.797  45.280  25.238  1.00  0.00     0.033 H 
ATOM     29  H   UNL     1     -45.348  45.355  26.095  1.00  0.00     0.033 H 
ATOM     30  H   UNL     1     -43.833  45.182  27.009  1.00  0.00     0.033 H 
ENDBRANCH  22  27
ENDBRANCH  11  21
BRANCH  16  31
ATOM     31  N   UNL     1     -42.811  41.136  29.002  1.00  0.00    -0.383 N 
ATOM     32  H   UNL     1     -42.890  41.782  29.788  1.00  0.00     0.158 HD
ATOM     33  H   UNL     1     -41.876  40.901  28.697  1.00  0.00     0.158 HD
ENDBRANCH  16  31
ENDBRANCH   1  10
BRANCH   5  34
ATOM     34  C   UNL     1     -47.176  33.474  26.049  1.00  0.00     0.115 C 
ATOM     35  H   UNL     1     -47.445  32.676  26.752  1.00  0.00     0.076 H 
ATOM     36  H   UNL     1     -46.091  33.382  25.920  1.00  0.00     0.076 H 
BRANCH  34  37
ATOM     37  O   UNL     1     -47.873  33.197  24.829  1.00  0.00    -0.489 OA
BRANCH  37  38
ATOM     38  C   UNL     1     -48.525  32.000  24.711  1.00  0.00     0.122 A 
ATOM     39  C   UNL     1     -49.764  32.066  24.079  1.00  0.00    -0.019 A 
ATOM     40  C   UNL     1     -48.056  30.764  25.163  1.00  0.00     0.007 A 
ATOM     41  C   UNL     1     -50.505  30.904  23.865  1.00  0.00    -0.049 A 
ATOM     42  H   UNL     1     -50.149  33.023  23.736  1.00  0.00     0.066 H 
ATOM     43  C   UNL     1     -48.758  29.587  24.936  1.00  0.00     0.076 A 
ATOM     44  H   UNL     1     -47.123  30.675  25.704  1.00  0.00     0.069 H 
ATOM     45  C   UNL     1     -50.000  29.663  24.280  1.00  0.00     0.001 A 
ATOM     46  H   UNL     1     -51.466  30.973  23.360  1.00  0.00     0.063 H 
ATOM     47  N   UNL     1     -48.220  28.424  25.339  1.00  0.00    -0.231 NA
ATOM     48  C   UNL     1     -50.693  28.469  24.065  1.00  0.00    -0.049 A 
ATOM     49  C   UNL     1     -48.886  27.270  25.101  1.00  0.00     0.129 A 
ATOM     50  C   UNL     1     -50.131  27.266  24.480  1.00  0.00    -0.019 A 
ATOM     51  H   UNL     1     -51.661  28.466  23.573  1.00  0.00     0.063 H 
ATOM     52  H   UNL     1     -50.665  26.337  24.318  1.00  0.00     0.066 H 
BRANCH  49  53
ATOM     53  N   UNL     1     -48.295  26.056  25.506  1.00  0.00    -0.356 N 
ATOM     54  C   UNL     1     -48.651  25.359  26.709  1.00  0.00     0.021 C 
ATOM     55  C   UNL     1     -46.893  25.824  25.710  1.00  0.00     0.021 C 
ATOM     56  C   UNL     1     -47.308  24.634  26.583  1.00  0.00    -0.018 C 
ATOM     57  H   UNL     1     -49.542  24.736  26.605  1.00  0.00     0.049 H 
ATOM     58  H   UNL     1     -48.736  26.021  27.576  1.00  0.00     0.049 H 
ATOM     59  H   UNL     1     -46.353  25.575  24.795  1.00  0.00     0.049 H 
ATOM     60  H   UNL     1     -46.397  26.639  26.247  1.00  0.00     0.049 H 
ATOM     61  H   UNL     1     -47.358  23.677  26.050  1.00  0.00     0.030 H 
ATOM     62  H   UNL     1     -46.747  24.505  27.512  1.00  0.00     0.030 H 
ENDBRANCH  49  53
ENDBRANCH  37  38
ENDBRANCH  34  37
ENDBRANCH   5  34
TORSDOF 8
ENDMDL
MODEL 4
REMARK VINA RESULT:     -10.5      2.265     12.300
REMARK SMILES Cc1nc(-c2cn(-c3cncc(COc4ccc5ccc(N6CCC6)nc5c4)c3)c3ncnc(N)c23)co1
REMARK SMILES IDX 8 1 9 2 10 3 11 4 12 5 29 6 7 10 5 11 6 12 36 13 30 15 34 16
REMARK SMILES IDX 31 17 33 18 32 19 4 21 2 22 3 23 38 24 37 25 1 27 35 31
REMARK SMILES IDX 13 34 14 37 15 38 16 39 28 40 17 41 27 43 18 45 26 47 19 48
REMARK SMILES IDX 21 49 20 50 22 53 23 54 25 55 24 56
REMARK H PARENT 9 7 11 8 29 9 6 14 32 20 37 26 1 28 1 29 1 30 35 32 35 33
REMARK H PARENT 13 35 13 36 16 42 28 44 17 46 19 51 20 52 23 57 23 58 25 59
REMARK H PARENT 25 60 24 61 24 62
REMARK Flexibility Score: inf
ROOT
ATOM      1  C   UNL     1     -47.935  33.555  26.251  1.00  0.00     0.066 A 
ATOM      2  C   UNL     1     -49.112  34.235  26.541  1.00  0.00     0.051 A 
ATOM      3  N   UNL     1     -49.164  35.418  27.207  1.00  0.00    -0.262 NA
ATOM      4  C   UNL     1     -47.991  35.948  27.616  1.00  0.00     0.034 A 
ATOM      5  C   UNL     1     -46.756  35.370  27.367  1.00  0.00     0.010 A 
ATOM      6  C   UNL     1     -46.738  34.160  26.661  1.00  0.00    -0.028 A 
ATOM      7  H   UNL     1     -50.096  33.859  26.286  1.00  0.00     0.086 H 
ATOM      8  H   UNL     1     -48.079  36.878  28.171  1.00  0.00     0.084 H 
ATOM      9  H   UNL     1     -45.774  33.713  26.442  1.00  0.00     0.065 H 
ENDROOT
BRANCH   1  10
ATOM     10  N   UNL     1     -47.929  32.283  25.595  1.00  0.00    -0.299 N 
ATOM     11  C   UNL     1     -48.483  30.150  25.103  1.00  0.00     0.035 A 
ATOM     12  C   UNL     1     -48.705  31.198  25.971  1.00  0.00     0.021 A 
ATOM     13  C   UNL     1     -47.505  30.571  24.163  1.00  0.00     0.071 A 
ATOM     14  H   UNL     1     -49.404  31.260  26.792  1.00  0.00     0.083 H 
ATOM     15  C   UNL     1     -47.190  31.894  24.478  1.00  0.00     0.150 A 
ATOM     16  C   UNL     1     -46.822  30.006  23.070  1.00  0.00     0.137 A 
ATOM     17  N   UNL     1     -46.294  32.654  23.817  1.00  0.00    -0.218 NA
ATOM     18  N   UNL     1     -45.943  30.757  22.381  1.00  0.00    -0.219 NA
ATOM     19  C   UNL     1     -45.726  32.015  22.788  1.00  0.00     0.120 A 
ATOM     20  H   UNL     1     -44.999  32.582  22.214  1.00  0.00     0.106 H 
BRANCH  11  21
ATOM     21  C   UNL     1     -49.158  28.858  25.151  1.00  0.00     0.111 A 
ATOM     22  C   UNL     1     -49.496  26.816  25.604  1.00  0.00     0.191 A 
ATOM     23  N   UNL     1     -48.627  27.784  25.827  1.00  0.00    -0.214 NA
ATOM     24  O   UNL     1     -50.559  27.173  24.820  1.00  0.00    -0.449 OA
ATOM     25  C   UNL     1     -50.332  28.486  24.540  1.00  0.00     0.119 A 
ATOM     26  H   UNL     1     -51.062  28.980  23.918  1.00  0.00     0.107 H 
BRANCH  22  27
ATOM     27  C   UNL     1     -49.471  25.418  26.077  1.00  0.00     0.013 C 
ATOM     28  H   UNL     1     -49.343  25.380  27.163  1.00  0.00     0.033 H 
ATOM     29  H   UNL     1     -50.406  24.911  25.824  1.00  0.00     0.033 H 
ATOM     30  H   UNL     1     -48.642  24.873  25.615  1.00  0.00     0.033 H 
ENDBRANCH  22  27
ENDBRANCH  11  21
BRANCH  16  31
ATOM     31  N   UNL     1     -46.987  28.698  22.640  1.00  0.00    -0.383 N 
ATOM     32  H   UNL     1     -47.425  28.628  21.721  1.00  0.00     0.158 HD
ATOM     33  H   UNL     1     -46.151  28.150  22.790  1.00  0.00     0.158 HD
ENDBRANCH  16  31
ENDBRANCH   1  10
BRANCH   5  34
ATOM     34  C   UNL     1     -45.489  36.012  27.870  1.00  0.00     0.115 C 
ATOM     35  H   UNL     1     -44.995  36.499  27.020  1.00  0.00     0.076 H 
ATOM     36  H   UNL     1     -44.760  35.283  28.242  1.00  0.00     0.076 H 
BRANCH  34  37
ATOM     37  O   UNL     1     -45.744  37.037  28.838  1.00  0.00    -0.489 OA
BRANCH  37  38
ATOM     38  C   UNL     1     -44.977  38.170  28.800  1.00  0.00     0.122 A 
ATOM     39  C   UNL     1     -44.172  38.371  29.919  1.00  0.00    -0.019 A 
ATOM     40  C   UNL     1     -44.945  39.104  27.762  1.00  0.00     0.007 A 
ATOM     41  C   UNL     1     -43.316  39.470  29.979  1.00  0.00    -0.049 A 
ATOM     42  H   UNL     1     -44.197  37.661  30.741  1.00  0.00     0.066 H 
ATOM     43  C   UNL     1     -44.081  40.191  27.781  1.00  0.00     0.076 A 
ATOM     44  H   UNL     1     -45.592  39.014  26.899  1.00  0.00     0.069 H 
ATOM     45  C   UNL     1     -43.259  40.374  28.907  1.00  0.00     0.001 A 
ATOM     46  H   UNL     1     -42.687  39.606  30.855  1.00  0.00     0.063 H 
ATOM     47  N   UNL     1     -44.054  41.016  26.721  1.00  0.00    -0.231 NA
ATOM     48  C   UNL     1     -42.399  41.475  28.909  1.00  0.00    -0.049 A 
ATOM     49  C   UNL     1     -43.197  42.063  26.720  1.00  0.00     0.129 A 
ATOM     50  C   UNL     1     -42.371  42.325  27.808  1.00  0.00    -0.019 A 
ATOM     51  H   UNL     1     -41.748  41.674  29.756  1.00  0.00     0.063 H 
ATOM     52  H   UNL     1     -41.707  43.182  27.806  1.00  0.00     0.066 H 
BRANCH  49  53
ATOM     53  N   UNL     1     -43.162  42.903  25.589  1.00  0.00    -0.356 N 
ATOM     54  C   UNL     1     -43.347  44.326  25.646  1.00  0.00     0.021 C 
ATOM     55  C   UNL     1     -43.982  42.780  24.417  1.00  0.00     0.021 C 
ATOM     56  C   UNL     1     -43.669  44.256  24.150  1.00  0.00    -0.018 C 
ATOM     57  H   UNL     1     -42.441  44.873  25.914  1.00  0.00     0.049 H 
ATOM     58  H   UNL     1     -44.186  44.621  26.284  1.00  0.00     0.049 H 
ATOM     59  H   UNL     1     -43.591  42.072  23.683  1.00  0.00     0.049 H 
ATOM     60  H   UNL     1     -45.031  42.564  24.648  1.00  0.00     0.049 H 
ATOM     61  H   UNL     1     -42.808  44.426  23.493  1.00  0.00     0.030 H 
ATOM     62  H   UNL     1     -44.510  44.869  23.816  1.00  0.00     0.030 H 
ENDBRANCH  49  53
ENDBRANCH  37  38
ENDBRANCH  34  37
ENDBRANCH   5  34
TORSDOF 8
ENDMDL
MODEL 5
REMARK VINA RESULT:     -10.3      1.720      2.587
REMARK SMILES Cc1nc(-c2cn(-c3cncc(COc4ccc5ccc(N6CCC6)nc5c4)c3)c3ncnc(N)c23)co1
REMARK SMILES IDX 8 1 9 2 10 3 11 4 12 5 29 6 7 10 5 11 6 12 36 13 30 15 34 16
REMARK SMILES IDX 31 17 33 18 32 19 4 21 2 22 3 23 38 24 37 25 1 27 35 31
REMARK SMILES IDX 13 34 14 37 15 38 16 39 28 40 17 41 27 43 18 45 26 47 19 48
REMARK SMILES IDX 21 49 20 50 22 53 23 54 25 55 24 56
REMARK H PARENT 9 7 11 8 29 9 6 14 32 20 37 26 1 28 1 29 1 30 35 32 35 33
REMARK H PARENT 13 35 13 36 16 42 28 44 17 46 19 51 20 52 23 57 23 58 25 59
REMARK H PARENT 25 60 24 61 24 62
REMARK Flexibility Score: inf
ROOT
ATOM      1  C   UNL     1     -45.707  39.161  27.221  1.00  0.00     0.066 A 
ATOM      2  C   UNL     1     -45.011  38.796  28.367  1.00  0.00     0.051 A 
ATOM      3  N   UNL     1     -45.152  37.598  28.993  1.00  0.00    -0.262 NA
ATOM      4  C   UNL     1     -46.033  36.724  28.463  1.00  0.00     0.034 A 
ATOM      5  C   UNL     1     -46.767  36.971  27.313  1.00  0.00     0.010 A 
ATOM      6  C   UNL     1     -46.584  38.209  26.682  1.00  0.00    -0.028 A 
ATOM      7  H   UNL     1     -44.318  39.452  28.879  1.00  0.00     0.086 H 
ATOM      8  H   UNL     1     -46.137  35.791  29.010  1.00  0.00     0.084 H 
ATOM      9  H   UNL     1     -47.138  38.402  25.770  1.00  0.00     0.065 H 
ENDROOT
BRANCH   1  10
ATOM     10  N   UNL     1     -45.570  40.455  26.625  1.00  0.00    -0.299 N 
ATOM     11  C   UNL     1     -44.651  42.182  25.497  1.00  0.00     0.035 A 
ATOM     12  C   UNL     1     -44.427  40.915  25.990  1.00  0.00     0.021 A 
ATOM     13  C   UNL     1     -45.972  42.558  25.862  1.00  0.00     0.071 A 
ATOM     14  H   UNL     1     -43.552  40.291  25.880  1.00  0.00     0.083 H 
ATOM     15  C   UNL     1     -46.523  41.471  26.543  1.00  0.00     0.150 A 
ATOM     16  C   UNL     1     -46.795  43.689  25.715  1.00  0.00     0.137 A 
ATOM     17  N   UNL     1     -47.768  41.433  27.058  1.00  0.00    -0.218 NA
ATOM     18  N   UNL     1     -48.050  43.660  26.199  1.00  0.00    -0.219 NA
ATOM     19  C   UNL     1     -48.459  42.556  26.838  1.00  0.00     0.120 A 
ATOM     20  H   UNL     1     -49.473  42.579  27.225  1.00  0.00     0.106 H 
BRANCH  11  21
ATOM     21  C   UNL     1     -43.694  42.969  24.726  1.00  0.00     0.111 A 
ATOM     22  C   UNL     1     -42.868  44.034  23.092  1.00  0.00     0.191 A 
ATOM     23  N   UNL     1     -43.973  43.410  23.454  1.00  0.00    -0.214 NA
ATOM     24  O   UNL     1     -41.875  44.029  24.034  1.00  0.00    -0.449 OA
ATOM     25  C   UNL     1     -42.420  43.344  25.078  1.00  0.00     0.119 A 
ATOM     26  H   UNL     1     -41.795  43.215  25.948  1.00  0.00     0.107 H 
BRANCH  22  27
ATOM     27  C   UNL     1     -42.563  44.725  21.823  1.00  0.00     0.013 C 
ATOM     28  H   UNL     1     -41.526  44.544  21.526  1.00  0.00     0.033 H 
ATOM     29  H   UNL     1     -43.217  44.365  21.024  1.00  0.00     0.033 H 
ATOM     30  H   UNL     1     -42.706  45.804  21.932  1.00  0.00     0.033 H 
ENDBRANCH  22  27
ENDBRANCH  11  21
BRANCH  16  31
ATOM     31  N   UNL     1     -46.399  44.865  25.095  1.00  0.00    -0.383 N 
ATOM     32  H   UNL     1     -47.138  45.298  24.540  1.00  0.00     0.158 HD
ATOM     33  H   UNL     1     -45.894  45.468  25.731  1.00  0.00     0.158 HD
ENDBRANCH  16  31
ENDBRANCH   1  10
BRANCH   5  34
ATOM     34  C   UNL     1     -47.747  35.953  26.790  1.00  0.00     0.115 C 
ATOM     35  H   UNL     1     -47.635  35.905  25.699  1.00  0.00     0.076 H 
ATOM     36  H   UNL     1     -48.791  36.242  26.955  1.00  0.00     0.076 H 
BRANCH  34  37
ATOM     37  O   UNL     1     -47.483  34.636  27.287  1.00  0.00    -0.489 OA
BRANCH  37  38
ATOM     38  C   UNL     1     -47.423  33.604  26.390  1.00  0.00     0.122 A 
ATOM     39  C   UNL     1     -46.454  33.743  25.399  1.00  0.00    -0.019 A 
ATOM     40  C   UNL     1     -48.233  32.466  26.395  1.00  0.00     0.007 A 
ATOM     41  C   UNL     1     -46.272  32.737  24.451  1.00  0.00    -0.049 A 
ATOM     42  H   UNL     1     -45.827  34.630  25.373  1.00  0.00     0.066 H 
ATOM     43  C   UNL     1     -48.053  31.435  25.484  1.00  0.00     0.076 A 
ATOM     44  H   UNL     1     -49.031  32.342  27.116  1.00  0.00     0.069 H 
ATOM     45  C   UNL     1     -47.059  31.576  24.498  1.00  0.00     0.001 A 
ATOM     46  H   UNL     1     -45.503  32.857  23.691  1.00  0.00     0.063 H 
ATOM     47  N   UNL     1     -48.823  30.338  25.584  1.00  0.00    -0.231 NA
ATOM     48  C   UNL     1     -46.896  30.530  23.587  1.00  0.00    -0.049 A 
ATOM     49  C   UNL     1     -48.638  29.318  24.715  1.00  0.00     0.129 A 
ATOM     50  C   UNL     1     -47.693  29.395  23.697  1.00  0.00    -0.019 A 
ATOM     51  H   UNL     1     -46.152  30.588  22.798  1.00  0.00     0.063 H 
ATOM     52  H   UNL     1     -47.571  28.581  22.991  1.00  0.00     0.066 H 
BRANCH  49  53
ATOM     53  N   UNL     1     -49.436  28.164  24.851  1.00  0.00    -0.356 N 
ATOM     54  C   UNL     1     -49.187  27.132  25.818  1.00  0.00     0.021 C 
ATOM     55  C   UNL     1     -49.732  27.213  23.818  1.00  0.00     0.021 C 
ATOM     56  C   UNL     1     -50.056  26.224  24.944  1.00  0.00    -0.018 C 
ATOM     57  H   UNL     1     -49.582  27.361  26.810  1.00  0.00     0.049 H 
ATOM     58  H   UNL     1     -48.133  26.846  25.873  1.00  0.00     0.049 H 
ATOM     59  H   UNL     1     -50.573  27.503  23.185  1.00  0.00     0.049 H 
ATOM     60  H   UNL     1     -48.858  26.952  23.212  1.00  0.00     0.049 H 
ATOM     61  H   UNL     1     -51.114  26.196  25.231  1.00  0.00     0.030 H 
ATOM     62  H   UNL     1     -49.688  25.205  24.804  1.00  0.00     0.030 H 
ENDBRANCH  49  53
ENDBRANCH  37  38
ENDBRANCH  34  37
ENDBRANCH   5  34
TORSDOF 8
ENDMDL
MODEL 6
REMARK VINA RESULT:     -10.3      1.775      2.088
REMARK SMILES Cc1nc(-c2cn(-c3cncc(COc4ccc5ccc(N6CCC6)nc5c4)c3)c3ncnc(N)c23)co1
REMARK SMILES IDX 8 1 9 2 10 3 11 4 12 5 29 6 7 10 5 11 6 12 36 13 30 15 34 16
REMARK SMILES IDX 31 17 33 18 32 19 4 21 2 22 3 23 38 24 37 25 1 27 35 31
REMARK SMILES IDX 13 34 14 37 15 38 16 39 28 40 17 41 27 43 18 45 26 47 19 48
REMARK SMILES IDX 21 49 20 50 22 53 23 54 25 55 24 56
REMARK H PARENT 9 7 11 8 29 9 6 14 32 20 37 26 1 28 1 29 1 30 35 32 35 33
REMARK H PARENT 13 35 13 36 16 42 28 44 17 46 19 51 20 52 23 57 23 58 25 59
REMARK H PARENT 25 60 24 61 24 62
REMARK Flexibility Score: inf
ROOT
ATOM      1  C   UNL     1     -46.582  37.765  27.565  1.00  0.00     0.066 A 
ATOM      2  C   UNL     1     -47.954  37.912  27.730  1.00  0.00     0.051 A 
ATOM      3  N   UNL     1     -48.840  36.883  27.682  1.00  0.00    -0.262 NA
ATOM      4  C   UNL     1     -48.343  35.650  27.448  1.00  0.00     0.034 A 
ATOM      5  C   UNL     1     -46.993  35.381  27.288  1.00  0.00     0.010 A 
ATOM      6  C   UNL     1     -46.104  36.463  27.362  1.00  0.00    -0.028 A 
ATOM      7  H   UNL     1     -48.438  38.870  27.879  1.00  0.00     0.086 H 
ATOM      8  H   UNL     1     -49.088  34.861  27.388  1.00  0.00     0.084 H 
ATOM      9  H   UNL     1     -45.044  36.257  27.259  1.00  0.00     0.065 H 
ENDROOT
BRANCH   1  10
ATOM     10  N   UNL     1     -45.689  38.883  27.567  1.00  0.00    -0.299 N 
ATOM     11  C   UNL     1     -44.732  40.832  26.947  1.00  0.00     0.035 A 
ATOM     12  C   UNL     1     -45.691  39.898  26.622  1.00  0.00     0.021 A 
ATOM     13  C   UNL     1     -44.070  40.380  28.120  1.00  0.00     0.071 A 
ATOM     14  H   UNL     1     -46.412  39.919  25.818  1.00  0.00     0.083 H 
ATOM     15  C   UNL     1     -44.688  39.184  28.491  1.00  0.00     0.150 A 
ATOM     16  C   UNL     1     -43.009  40.817  28.934  1.00  0.00     0.137 A 
ATOM     17  N   UNL     1     -44.344  38.435  29.558  1.00  0.00    -0.218 NA
ATOM     18  N   UNL     1     -42.669  40.098  30.018  1.00  0.00    -0.219 NA
ATOM     19  C   UNL     1     -43.338  38.964  30.264  1.00  0.00     0.120 A 
ATOM     20  H   UNL     1     -43.023  38.406  31.141  1.00  0.00     0.106 H 
BRANCH  11  21
ATOM     21  C   UNL     1     -44.474  42.066  26.213  1.00  0.00     0.111 A 
ATOM     22  C   UNL     1     -44.232  44.139  25.847  1.00  0.00     0.191 A 
ATOM     23  N   UNL     1     -44.453  43.293  26.835  1.00  0.00    -0.214 NA
ATOM     24  O   UNL     1     -44.115  43.558  24.614  1.00  0.00    -0.449 OA
ATOM     25  C   UNL     1     -44.269  42.228  24.863  1.00  0.00     0.119 A 
ATOM     26  H   UNL     1     -44.215  41.568  24.011  1.00  0.00     0.107 H 
BRANCH  22  27
ATOM     27  C   UNL     1     -44.101  45.609  25.894  1.00  0.00     0.013 C 
ATOM     28  H   UNL     1     -43.663  45.986  24.965  1.00  0.00     0.033 H 
ATOM     29  H   UNL     1     -45.080  46.077  26.027  1.00  0.00     0.033 H 
ATOM     30  H   UNL     1     -43.455  45.908  26.725  1.00  0.00     0.033 H 
ENDBRANCH  22  27
ENDBRANCH  11  21
BRANCH  16  31
ATOM     31  N   UNL     1     -42.265  41.963  28.694  1.00  0.00    -0.383 N 
ATOM     32  H   UNL     1     -42.547  42.457  27.847  1.00  0.00     0.158 HD
ATOM     33  H   UNL     1     -42.160  42.518  29.533  1.00  0.00     0.158 HD
ENDBRANCH  16  31
ENDBRANCH   1  10
BRANCH   5  34
ATOM     34  C   UNL     1     -46.513  33.980  27.012  1.00  0.00     0.115 C 
ATOM     35  H   UNL     1     -45.926  33.646  27.877  1.00  0.00     0.076 H 
ATOM     36  H   UNL     1     -45.822  33.925  26.163  1.00  0.00     0.076 H 
BRANCH  34  37
ATOM     37  O   UNL     1     -47.594  33.051  26.868  1.00  0.00    -0.489 OA
BRANCH  37  38
ATOM     38  C   UNL     1     -47.645  32.286  25.734  1.00  0.00     0.122 A 
ATOM     39  C   UNL     1     -46.495  32.322  24.949  1.00  0.00    -0.019 A 
ATOM     40  C   UNL     1     -48.726  31.502  25.323  1.00  0.00     0.007 A 
ATOM     41  C   UNL     1     -46.413  31.552  23.790  1.00  0.00    -0.049 A 
ATOM     42  H   UNL     1     -45.652  32.940  25.249  1.00  0.00     0.066 H 
ATOM     43  C   UNL     1     -48.660  30.702  24.190  1.00  0.00     0.076 A 
ATOM     44  H   UNL     1     -49.656  31.485  25.875  1.00  0.00     0.069 H 
ATOM     45  C   UNL     1     -47.488  30.732  23.414  1.00  0.00     0.001 A 
ATOM     46  H   UNL     1     -45.504  31.585  23.195  1.00  0.00     0.063 H 
ATOM     47  N   UNL     1     -49.712  29.922  23.886  1.00  0.00    -0.231 NA
ATOM     48  C   UNL     1     -47.442  29.923  22.277  1.00  0.00    -0.049 A 
ATOM     49  C   UNL     1     -49.647  29.121  22.798  1.00  0.00     0.129 A 
ATOM     50  C   UNL     1     -48.531  29.114  21.967  1.00  0.00    -0.019 A 
ATOM     51  H   UNL     1     -46.567  29.912  21.634  1.00  0.00     0.063 H 
ATOM     52  H   UNL     1     -48.502  28.486  21.084  1.00  0.00     0.066 H 
BRANCH  49  53
ATOM     53  N   UNL     1     -50.748  28.289  22.508  1.00  0.00    -0.356 N 
ATOM     54  C   UNL     1     -50.928  26.980  23.070  1.00  0.00     0.021 C 
ATOM     55  C   UNL     1     -51.161  27.856  21.203  1.00  0.00     0.021 C 
ATOM     56  C   UNL     1     -51.894  26.712  21.913  1.00  0.00    -0.018 C 
ATOM     57  H   UNL     1     -51.369  26.991  24.068  1.00  0.00     0.049 H 
ATOM     58  H   UNL     1     -50.012  26.381  23.053  1.00  0.00     0.049 H 
ATOM     59  H   UNL     1     -51.796  28.576  20.684  1.00  0.00     0.049 H 
ATOM     60  H   UNL     1     -50.324  27.545  20.569  1.00  0.00     0.049 H 
ATOM     61  H   UNL     1     -52.945  26.921  22.143  1.00  0.00     0.030 H 
ATOM     62  H   UNL     1     -51.812  25.728  21.443  1.00  0.00     0.030 H 
ENDBRANCH  49  53
ENDBRANCH  37  38
ENDBRANCH  34  37
ENDBRANCH   5  34
TORSDOF 8
ENDMDL
MODEL 7
REMARK VINA RESULT:      -9.8      1.946      2.660
REMARK SMILES Cc1nc(-c2cn(-c3cncc(COc4ccc5ccc(N6CCC6)nc5c4)c3)c3ncnc(N)c23)co1
REMARK SMILES IDX 8 1 9 2 10 3 11 4 12 5 29 6 7 10 5 11 6 12 36 13 30 15 34 16
REMARK SMILES IDX 31 17 33 18 32 19 4 21 2 22 3 23 38 24 37 25 1 27 35 31
REMARK SMILES IDX 13 34 14 37 15 38 16 39 28 40 17 41 27 43 18 45 26 47 19 48
REMARK SMILES IDX 21 49 20 50 22 53 23 54 25 55 24 56
REMARK H PARENT 9 7 11 8 29 9 6 14 32 20 37 26 1 28 1 29 1 30 35 32 35 33
REMARK H PARENT 13 35 13 36 16 42 28 44 17 46 19 51 20 52 23 57 23 58 25 59
REMARK H PARENT 25 60 24 61 24 62
REMARK Flexibility Score: inf
ROOT
ATOM      1  C   UNL     1     -46.455  40.084  27.189  1.00  0.00     0.066 A 
ATOM      2  C   UNL     1     -47.733  40.491  27.550  1.00  0.00     0.051 A 
ATOM      3  N   UNL     1     -48.696  39.652  28.013  1.00  0.00    -0.262 NA
ATOM      4  C   UNL     1     -48.379  38.343  28.113  1.00  0.00     0.034 A 
ATOM      5  C   UNL     1     -47.131  37.827  27.801  1.00  0.00     0.010 A 
ATOM      6  C   UNL     1     -46.156  38.723  27.344  1.00  0.00    -0.028 A 
ATOM      7  H   UNL     1     -48.082  41.513  27.460  1.00  0.00     0.086 H 
ATOM      8  H   UNL     1     -49.186  37.703  28.459  1.00  0.00     0.084 H 
ATOM      9  H   UNL     1     -45.170  38.330  27.119  1.00  0.00     0.065 H 
ENDROOT
BRANCH   1  10
ATOM     10  N   UNL     1     -45.487  40.993  26.652  1.00  0.00    -0.299 N 
ATOM     11  C   UNL     1     -44.575  42.579  25.329  1.00  0.00     0.035 A 
ATOM     12  C   UNL     1     -45.693  41.802  25.547  1.00  0.00     0.021 A 
ATOM     13  C   UNL     1     -43.609  42.225  26.309  1.00  0.00     0.071 A 
ATOM     14  H   UNL     1     -46.638  41.817  25.025  1.00  0.00     0.083 H 
ATOM     15  C   UNL     1     -44.200  41.256  27.122  1.00  0.00     0.150 A 
ATOM     16  C   UNL     1     -42.288  42.590  26.627  1.00  0.00     0.137 A 
ATOM     17  N   UNL     1     -43.603  40.660  28.173  1.00  0.00    -0.218 NA
ATOM     18  N   UNL     1     -41.684  42.025  27.689  1.00  0.00    -0.219 NA
ATOM     19  C   UNL     1     -42.359  41.103  28.387  1.00  0.00     0.120 A 
ATOM     20  H   UNL     1     -41.831  40.662  29.227  1.00  0.00     0.106 H 
BRANCH  11  21
ATOM     21  C   UNL     1     -44.439  43.589  24.285  1.00  0.00     0.111 A 
ATOM     22  C   UNL     1     -43.595  44.657  22.662  1.00  0.00     0.191 A 
ATOM     23  N   UNL     1     -43.381  43.589  23.406  1.00  0.00    -0.214 NA
ATOM     24  O   UNL     1     -44.717  45.368  22.994  1.00  0.00    -0.449 OA
ATOM     25  C   UNL     1     -45.250  44.670  24.035  1.00  0.00     0.119 A 
ATOM     26  H   UNL     1     -46.158  45.063  24.465  1.00  0.00     0.107 H 
BRANCH  22  27
ATOM     27  C   UNL     1     -42.796  45.183  21.538  1.00  0.00     0.013 C 
ATOM     28  H   UNL     1     -43.330  45.992  21.030  1.00  0.00     0.033 H 
ATOM     29  H   UNL     1     -41.840  45.574  21.897  1.00  0.00     0.033 H 
ATOM     30  H   UNL     1     -42.597  44.392  20.808  1.00  0.00     0.033 H 
ENDBRANCH  22  27
ENDBRANCH  11  21
BRANCH  16  31
ATOM     31  N   UNL     1     -41.540  43.511  25.909  1.00  0.00    -0.383 N 
ATOM     32  H   UNL     1     -40.695  43.812  26.395  1.00  0.00     0.158 HD
ATOM     33  H   UNL     1     -41.434  43.229  24.943  1.00  0.00     0.158 HD
ENDBRANCH  16  31
ENDBRANCH   1  10
BRANCH   5  34
ATOM     34  C   UNL     1     -46.856  36.350  27.921  1.00  0.00     0.115 C 
ATOM     35  H   UNL     1     -47.797  35.851  28.188  1.00  0.00     0.076 H 
ATOM     36  H   UNL     1     -46.167  36.111  28.739  1.00  0.00     0.076 H 
BRANCH  34  37
ATOM     37  O   UNL     1     -46.422  35.773  26.685  1.00  0.00    -0.489 OA
BRANCH  37  38
ATOM     38  C   UNL     1     -47.020  34.617  26.262  1.00  0.00     0.122 A 
ATOM     39  C   UNL     1     -48.365  34.494  26.604  1.00  0.00    -0.019 A 
ATOM     40  C   UNL     1     -46.404  33.591  25.542  1.00  0.00     0.007 A 
ATOM     41  C   UNL     1     -49.093  33.378  26.195  1.00  0.00    -0.049 A 
ATOM     42  H   UNL     1     -48.854  35.278  27.178  1.00  0.00     0.066 H 
ATOM     43  C   UNL     1     -47.112  32.484  25.095  1.00  0.00     0.076 A 
ATOM     44  H   UNL     1     -45.350  33.623  25.300  1.00  0.00     0.069 H 
ATOM     45  C   UNL     1     -48.474  32.378  25.430  1.00  0.00     0.001 A 
ATOM     46  H   UNL     1     -50.145  33.303  26.462  1.00  0.00     0.063 H 
ATOM     47  N   UNL     1     -46.474  31.564  24.351  1.00  0.00    -0.231 NA
ATOM     48  C   UNL     1     -49.168  31.254  24.975  1.00  0.00    -0.049 A 
ATOM     49  C   UNL     1     -47.162  30.494  23.891  1.00  0.00     0.129 A 
ATOM     50  C   UNL     1     -48.505  30.306  24.201  1.00  0.00    -0.019 A 
ATOM     51  H   UNL     1     -50.219  31.113  25.211  1.00  0.00     0.063 H 
ATOM     52  H   UNL     1     -49.039  29.431  23.847  1.00  0.00     0.066 H 
BRANCH  49  53
ATOM     53  N   UNL     1     -46.485  29.553  23.089  1.00  0.00    -0.356 N 
ATOM     54  C   UNL     1     -46.131  28.234  23.534  1.00  0.00     0.021 C 
ATOM     55  C   UNL     1     -45.217  29.746  22.446  1.00  0.00     0.021 C 
ATOM     56  C   UNL     1     -45.112  28.217  22.391  1.00  0.00    -0.018 C 
ATOM     57  H   UNL     1     -46.948  27.514  23.456  1.00  0.00     0.049 H 
ATOM     58  H   UNL     1     -45.697  28.227  24.538  1.00  0.00     0.049 H 
ATOM     59  H   UNL     1     -45.288  30.250  21.480  1.00  0.00     0.049 H 
ATOM     60  H   UNL     1     -44.479  30.236  23.090  1.00  0.00     0.049 H 
ATOM     61  H   UNL     1     -45.481  27.771  21.461  1.00  0.00     0.030 H 
ATOM     62  H   UNL     1     -44.132  27.797  22.634  1.00  0.00     0.030 H 
ENDBRANCH  49  53
ENDBRANCH  37  38
ENDBRANCH  34  37
ENDBRANCH   5  34
TORSDOF 8
ENDMDL
