MODEL 1
REMARK VINA RESULT:     -10.4      0.000      0.000
REMARK SMILES Nc1ncnc2c1ccn2[C@H]1C[C@H](O)[C@@H](COc2ccc3ccc(NC4CC4)nc3c2)O1
REMARK SMILES IDX 16 1 15 4 11 5 12 6 32 7 13 9 10 14 2 15 3 16 7 17 4 18 6 19
REMARK SMILES IDX 8 20 5 21 9 23 1 26 14 29 17 31 18 32 19 33 31 34 20 35
REMARK SMILES IDX 30 37 21 39 29 41 22 42 24 43 23 44 25 47 26 49 27 50 28 51
REMARK H PARENT 16 2 16 3 11 8 12 10 12 11 13 12 15 13 4 22 8 24 9 25 1 27
REMARK H PARENT 1 28 14 30 19 36 31 38 20 40 22 45 23 46 25 48 26 52 27 53
REMARK H PARENT 27 54 28 55 28 56
REMARK Flexibility Score: inf
ROOT
ATOM      1  C   UNL     1     -45.601  35.395  27.751  1.00  0.00     0.117 C 
ATOM      2  H   UNL     1     -45.723  34.371  28.127  1.00  0.00     0.073 H 
ATOM      3  H   UNL     1     -44.565  35.506  27.411  1.00  0.00     0.073 H 
ENDROOT
BRANCH   1   4
ATOM      4  C   UNL     1     -45.900  36.405  28.857  1.00  0.00     0.120 C 
ATOM      5  C   UNL     1     -45.181  38.552  29.449  1.00  0.00     0.138 C 
ATOM      6  C   UNL     1     -46.703  38.535  29.414  1.00  0.00     0.022 C 
ATOM      7  O   UNL     1     -44.738  37.209  29.152  1.00  0.00    -0.348 OA
ATOM      8  H   UNL     1     -44.793  38.834  30.435  1.00  0.00     0.085 H 
ATOM      9  C   UNL     1     -46.987  37.397  28.465  1.00  0.00     0.088 C 
ATOM     10  H   UNL     1     -47.170  39.473  29.100  1.00  0.00     0.034 H 
ATOM     11  H   UNL     1     -47.102  38.298  30.409  1.00  0.00     0.034 H 
ATOM     12  H   UNL     1     -46.870  37.725  27.425  1.00  0.00     0.063 H 
ATOM     13  H   UNL     1     -46.166  35.869  29.778  1.00  0.00     0.067 H 
BRANCH   5  14
ATOM     14  N   UNL     1     -44.600  39.482  28.483  1.00  0.00    -0.306 N 
ATOM     15  C   UNL     1     -42.082  41.841  27.689  1.00  0.00     0.136 A 
ATOM     16  N   UNL     1     -41.339  41.845  28.813  1.00  0.00    -0.219 NA
ATOM     17  C   UNL     1     -43.204  41.004  27.621  1.00  0.00     0.061 A 
ATOM     18  C   UNL     1     -41.717  41.045  29.829  1.00  0.00     0.120 A 
ATOM     19  C   UNL     1     -43.472  40.228  28.740  1.00  0.00     0.147 A 
ATOM     20  C   UNL     1     -44.214  40.710  26.664  1.00  0.00    -0.031 A 
ATOM     21  N   UNL     1     -42.766  40.205  29.884  1.00  0.00    -0.218 NA
ATOM     22  H   UNL     1     -41.091  41.083  30.717  1.00  0.00     0.106 H 
ATOM     23  C   UNL     1     -45.056  39.770  27.220  1.00  0.00     0.009 A 
ATOM     24  H   UNL     1     -44.313  41.137  25.674  1.00  0.00     0.065 H 
ATOM     25  H   UNL     1     -45.930  39.281  26.809  1.00  0.00     0.082 H 
BRANCH  15  26
ATOM     26  N   UNL     1     -41.673  42.666  26.650  1.00  0.00    -0.383 N 
ATOM     27  H   UNL     1     -42.462  42.915  26.064  1.00  0.00     0.158 HD
ATOM     28  H   UNL     1     -41.066  43.423  26.929  1.00  0.00     0.158 HD
ENDBRANCH  15  26
ENDBRANCH   5  14
BRANCH   9  29
ATOM     29  O   UNL     1     -48.289  36.870  28.638  1.00  0.00    -0.390 OA
ATOM     30  H   UNL     1     -48.668  36.717  27.754  1.00  0.00     0.211 HD
ENDBRANCH   9  29
ENDBRANCH   1   4
BRANCH   1  31
ATOM     31  O   UNL     1     -46.442  35.668  26.616  1.00  0.00    -0.491 OA
BRANCH  31  32
ATOM     32  C   UNL     1     -47.115  34.555  26.196  1.00  0.00     0.121 A 
ATOM     33  C   UNL     1     -48.468  34.457  26.494  1.00  0.00    -0.019 A 
ATOM     34  C   UNL     1     -46.451  33.511  25.550  1.00  0.00     0.007 A 
ATOM     35  C   UNL     1     -49.170  33.321  26.097  1.00  0.00    -0.049 A 
ATOM     36  H   UNL     1     -48.972  35.259  27.025  1.00  0.00     0.066 H 
ATOM     37  C   UNL     1     -47.129  32.372  25.142  1.00  0.00     0.076 A 
ATOM     38  H   UNL     1     -45.383  33.580  25.367  1.00  0.00     0.069 H 
ATOM     39  C   UNL     1     -48.508  32.282  25.420  1.00  0.00     0.001 A 
ATOM     40  H   UNL     1     -50.232  33.249  26.323  1.00  0.00     0.063 H 
ATOM     41  N   UNL     1     -46.457  31.399  24.500  1.00  0.00    -0.231 NA
ATOM     42  C   UNL     1     -49.182  31.132  25.001  1.00  0.00    -0.049 A 
ATOM     43  C   UNL     1     -47.122  30.292  24.112  1.00  0.00     0.126 A 
ATOM     44  C   UNL     1     -48.482  30.129  24.337  1.00  0.00    -0.019 A 
ATOM     45  H   UNL     1     -50.245  31.009  25.182  1.00  0.00     0.063 H 
ATOM     46  H   UNL     1     -49.000  29.241  23.996  1.00  0.00     0.066 H 
BRANCH  43  47
ATOM     47  N   UNL     1     -46.356  29.329  23.436  1.00  0.00    -0.367 N 
ATOM     48  H   UNL     1     -45.386  29.579  23.620  1.00  0.00     0.162 HD
BRANCH  47  49
ATOM     49  C   UNL     1     -46.711  27.915  23.510  1.00  0.00     0.028 C 
ATOM     50  C   UNL     1     -46.720  27.217  24.843  1.00  0.00    -0.031 C 
ATOM     51  C   UNL     1     -45.681  26.866  23.819  1.00  0.00    -0.031 C 
ATOM     52  H   UNL     1     -47.518  27.646  22.831  1.00  0.00     0.053 H 
ATOM     53  H   UNL     1     -46.401  27.774  25.715  1.00  0.00     0.029 H 
ATOM     54  H   UNL     1     -47.510  26.501  25.033  1.00  0.00     0.029 H 
ATOM     55  H   UNL     1     -44.662  27.189  24.003  1.00  0.00     0.029 H 
ATOM     56  H   UNL     1     -45.764  25.910  23.316  1.00  0.00     0.029 H 
ENDBRANCH  47  49
ENDBRANCH  43  47
ENDBRANCH  31  32
ENDBRANCH   1  31
TORSDOF 8
ENDMDL
MODEL 2
REMARK VINA RESULT:     -10.2      1.605      2.064
REMARK SMILES Nc1ncnc2c1ccn2[C@H]1C[C@H](O)[C@@H](COc2ccc3ccc(NC4CC4)nc3c2)O1
REMARK SMILES IDX 16 1 15 4 11 5 12 6 32 7 13 9 10 14 2 15 3 16 7 17 4 18 6 19
REMARK SMILES IDX 8 20 5 21 9 23 1 26 14 29 17 31 18 32 19 33 31 34 20 35
REMARK SMILES IDX 30 37 21 39 29 41 22 42 24 43 23 44 25 47 26 49 27 50 28 51
REMARK H PARENT 16 2 16 3 11 8 12 10 12 11 13 12 15 13 4 22 8 24 9 25 1 27
REMARK H PARENT 1 28 14 30 19 36 31 38 20 40 22 45 23 46 25 48 26 52 27 53
REMARK H PARENT 27 54 28 55 28 56
REMARK Flexibility Score: inf
ROOT
ATOM      1  C   UNL     1     -46.174  35.022  27.342  1.00  0.00     0.117 C 
ATOM      2  H   UNL     1     -45.257  34.423  27.272  1.00  0.00     0.073 H 
ATOM      3  H   UNL     1     -46.206  35.690  26.474  1.00  0.00     0.073 H 
ENDROOT
BRANCH   1   4
ATOM      4  C   UNL     1     -46.176  35.840  28.632  1.00  0.00     0.120 C 
ATOM      5  C   UNL     1     -45.239  37.849  29.381  1.00  0.00     0.138 C 
ATOM      6  C   UNL     1     -46.731  37.862  29.680  1.00  0.00     0.022 C 
ATOM      7  O   UNL     1     -44.938  36.567  28.786  1.00  0.00    -0.348 OA
ATOM      8  H   UNL     1     -44.633  37.959  30.288  1.00  0.00     0.085 H 
ATOM      9  C   UNL     1     -47.270  36.900  28.650  1.00  0.00     0.088 C 
ATOM     10  H   UNL     1     -47.206  38.846  29.629  1.00  0.00     0.034 H 
ATOM     11  H   UNL     1     -46.918  37.470  30.689  1.00  0.00     0.034 H 
ATOM     12  H   UNL     1     -47.363  37.393  27.675  1.00  0.00     0.063 H 
ATOM     13  H   UNL     1     -46.265  35.164  29.492  1.00  0.00     0.067 H 
BRANCH   5  14
ATOM     14  N   UNL     1     -44.832  38.916  28.469  1.00  0.00    -0.306 N 
ATOM     15  C   UNL     1     -42.717  41.672  27.786  1.00  0.00     0.136 A 
ATOM     16  N   UNL     1     -41.948  41.714  28.891  1.00  0.00    -0.219 NA
ATOM     17  C   UNL     1     -43.705  40.683  27.684  1.00  0.00     0.061 A 
ATOM     18  C   UNL     1     -42.170  40.802  29.857  1.00  0.00     0.120 A 
ATOM     19  C   UNL     1     -43.819  39.804  28.753  1.00  0.00     0.147 A 
ATOM     20  C   UNL     1     -44.690  40.304  26.731  1.00  0.00    -0.031 A 
ATOM     21  N   UNL     1     -43.082  39.814  29.876  1.00  0.00    -0.218 NA
ATOM     22  H   UNL     1     -41.530  40.876  30.732  1.00  0.00     0.106 H 
ATOM     23  C   UNL     1     -45.366  39.215  27.239  1.00  0.00     0.009 A 
ATOM     24  H   UNL     1     -44.882  40.775  25.776  1.00  0.00     0.065 H 
ATOM     25  H   UNL     1     -46.170  38.628  26.815  1.00  0.00     0.082 H 
BRANCH  15  26
ATOM     26  N   UNL     1     -42.468  42.615  26.797  1.00  0.00    -0.383 N 
ATOM     27  H   UNL     1     -41.621  42.384  26.292  1.00  0.00     0.158 HD
ATOM     28  H   UNL     1     -43.272  42.858  26.236  1.00  0.00     0.158 HD
ENDBRANCH  15  26
ENDBRANCH   5  14
BRANCH   9  29
ATOM     29  O   UNL     1     -48.530  36.371  29.021  1.00  0.00    -0.390 OA
ATOM     30  H   UNL     1     -48.584  35.462  28.675  1.00  0.00     0.211 HD
ENDBRANCH   9  29
ENDBRANCH   1   4
BRANCH   1  31
ATOM     31  O   UNL     1     -47.364  34.214  27.288  1.00  0.00    -0.491 OA
BRANCH  31  32
ATOM     32  C   UNL     1     -47.289  33.253  26.318  1.00  0.00     0.121 A 
ATOM     33  C   UNL     1     -46.391  33.445  25.276  1.00  0.00    -0.019 A 
ATOM     34  C   UNL     1     -48.138  32.146  26.332  1.00  0.00     0.007 A 
ATOM     35  C   UNL     1     -46.312  32.491  24.264  1.00  0.00    -0.049 A 
ATOM     36  H   UNL     1     -45.755  34.325  25.255  1.00  0.00     0.066 H 
ATOM     37  C   UNL     1     -48.076  31.181  25.338  1.00  0.00     0.076 A 
ATOM     38  H   UNL     1     -48.869  32.034  27.127  1.00  0.00     0.069 H 
ATOM     39  C   UNL     1     -47.146  31.360  24.293  1.00  0.00     0.001 A 
ATOM     40  H   UNL     1     -45.602  32.637  23.453  1.00  0.00     0.063 H 
ATOM     41  N   UNL     1     -48.894  30.115  25.401  1.00  0.00    -0.231 NA
ATOM     42  C   UNL     1     -47.089  30.380  23.299  1.00  0.00    -0.049 A 
ATOM     43  C   UNL     1     -48.832  29.184  24.427  1.00  0.00     0.126 A 
ATOM     44  C   UNL     1     -47.939  29.280  23.369  1.00  0.00    -0.019 A 
ATOM     45  H   UNL     1     -46.390  30.461  22.472  1.00  0.00     0.063 H 
ATOM     46  H   UNL     1     -47.891  28.508  22.611  1.00  0.00     0.066 H 
BRANCH  43  47
ATOM     47  N   UNL     1     -49.707  28.097  24.571  1.00  0.00    -0.367 N 
ATOM     48  H   UNL     1     -49.677  27.606  23.679  1.00  0.00     0.162 HD
BRANCH  47  49
ATOM     49  C   UNL     1     -49.688  27.286  25.786  1.00  0.00     0.028 C 
ATOM     50  C   UNL     1     -49.486  25.798  25.685  1.00  0.00    -0.031 C 
ATOM     51  C   UNL     1     -50.814  26.349  26.116  1.00  0.00    -0.031 C 
ATOM     52  H   UNL     1     -49.178  27.777  26.613  1.00  0.00     0.053 H 
ATOM     53  H   UNL     1     -49.421  25.355  24.699  1.00  0.00     0.029 H 
ATOM     54  H   UNL     1     -48.866  25.321  26.433  1.00  0.00     0.029 H 
ATOM     55  H   UNL     1     -51.641  26.276  25.419  1.00  0.00     0.029 H 
ATOM     56  H   UNL     1     -51.096  26.243  27.157  1.00  0.00     0.029 H 
ENDBRANCH  47  49
ENDBRANCH  43  47
ENDBRANCH  31  32
ENDBRANCH   1  31
TORSDOF 8
ENDMDL
MODEL 3
REMARK VINA RESULT:      -9.5      1.868     10.695
REMARK SMILES Nc1ncnc2c1ccn2[C@H]1C[C@H](O)[C@@H](COc2ccc3ccc(NC4CC4)nc3c2)O1
REMARK SMILES IDX 16 1 15 4 11 5 12 6 32 7 13 9 10 14 2 15 3 16 7 17 4 18 6 19
REMARK SMILES IDX 8 20 5 21 9 23 1 26 14 29 17 31 18 32 19 33 31 34 20 35
REMARK SMILES IDX 30 37 21 39 29 41 22 42 24 43 23 44 25 47 26 49 27 50 28 51
REMARK H PARENT 16 2 16 3 11 8 12 10 12 11 13 12 15 13 4 22 8 24 9 25 1 27
REMARK H PARENT 1 28 14 30 19 36 31 38 20 40 22 45 23 46 25 48 26 52 27 53
REMARK H PARENT 27 54 28 55 28 56
REMARK Flexibility Score: inf
ROOT
ATOM      1  C   UNL     1     -46.275  33.034  26.487  1.00  0.00     0.117 C 
ATOM      2  H   UNL     1     -45.411  33.542  26.038  1.00  0.00     0.073 H 
ATOM      3  H   UNL     1     -45.940  32.052  26.842  1.00  0.00     0.073 H 
ENDROOT
BRANCH   1   4
ATOM      4  C   UNL     1     -47.386  32.864  25.452  1.00  0.00     0.120 C 
ATOM      5  C   UNL     1     -48.093  31.204  23.961  1.00  0.00     0.138 C 
ATOM      6  C   UNL     1     -49.287  31.668  24.782  1.00  0.00     0.022 C 
ATOM      7  O   UNL     1     -46.962  32.004  24.372  1.00  0.00    -0.348 OA
ATOM      8  H   UNL     1     -48.246  31.351  22.886  1.00  0.00     0.085 H 
ATOM      9  C   UNL     1     -48.628  32.199  26.032  1.00  0.00     0.088 C 
ATOM     10  H   UNL     1     -50.032  30.896  24.994  1.00  0.00     0.034 H 
ATOM     11  H   UNL     1     -49.811  32.482  24.263  1.00  0.00     0.034 H 
ATOM     12  H   UNL     1     -48.361  31.377  26.705  1.00  0.00     0.063 H 
ATOM     13  H   UNL     1     -47.627  33.841  25.013  1.00  0.00     0.067 H 
BRANCH   5  14
ATOM     14  N   UNL     1     -47.783  29.789  24.155  1.00  0.00    -0.306 N 
ATOM     15  C   UNL     1     -45.637  27.045  23.525  1.00  0.00     0.136 A 
ATOM     16  N   UNL     1     -44.677  27.610  22.766  1.00  0.00    -0.219 NA
ATOM     17  C   UNL     1     -46.695  27.842  23.984  1.00  0.00     0.061 A 
ATOM     18  C   UNL     1     -44.784  28.921  22.476  1.00  0.00     0.120 A 
ATOM     19  C   UNL     1     -46.675  29.179  23.613  1.00  0.00     0.147 A 
ATOM     20  C   UNL     1     -47.862  27.649  24.772  1.00  0.00    -0.031 A 
ATOM     21  N   UNL     1     -45.746  29.783  22.853  1.00  0.00    -0.218 NA
ATOM     22  H   UNL     1     -43.991  29.334  21.858  1.00  0.00     0.106 H 
ATOM     23  C   UNL     1     -48.511  28.863  24.863  1.00  0.00     0.009 A 
ATOM     24  H   UNL     1     -48.191  26.724  25.228  1.00  0.00     0.065 H 
ATOM     25  H   UNL     1     -49.419  29.136  25.384  1.00  0.00     0.082 H 
BRANCH  15  26
ATOM     26  N   UNL     1     -45.505  25.695  23.820  1.00  0.00    -0.383 N 
ATOM     27  H   UNL     1     -46.030  25.462  24.655  1.00  0.00     0.158 HD
ATOM     28  H   UNL     1     -45.626  25.078  23.029  1.00  0.00     0.158 HD
ENDBRANCH  15  26
ENDBRANCH   5  14
BRANCH   9  29
ATOM     29  O   UNL     1     -49.457  33.113  26.726  1.00  0.00    -0.390 OA
ATOM     30  H   UNL     1     -50.275  32.645  26.970  1.00  0.00     0.211 HD
ENDBRANCH   9  29
ENDBRANCH   1   4
BRANCH   1  31
ATOM     31  O   UNL     1     -46.793  33.735  27.632  1.00  0.00    -0.491 OA
BRANCH  31  32
ATOM     32  C   UNL     1     -46.637  35.088  27.519  1.00  0.00     0.121 A 
ATOM     33  C   UNL     1     -47.362  35.750  26.536  1.00  0.00    -0.019 A 
ATOM     34  C   UNL     1     -45.723  35.778  28.316  1.00  0.00     0.007 A 
ATOM     35  C   UNL     1     -47.202  37.125  26.385  1.00  0.00    -0.049 A 
ATOM     36  H   UNL     1     -48.047  35.202  25.897  1.00  0.00     0.066 H 
ATOM     37  C   UNL     1     -45.549  37.148  28.188  1.00  0.00     0.076 A 
ATOM     38  H   UNL     1     -45.127  35.239  29.047  1.00  0.00     0.069 H 
ATOM     39  C   UNL     1     -46.304  37.827  27.209  1.00  0.00     0.001 A 
ATOM     40  H   UNL     1     -47.776  37.645  25.622  1.00  0.00     0.063 H 
ATOM     41  N   UNL     1     -44.677  37.781  28.993  1.00  0.00    -0.231 NA
ATOM     42  C   UNL     1     -46.124  39.207  27.091  1.00  0.00    -0.049 A 
ATOM     43  C   UNL     1     -44.508  39.112  28.858  1.00  0.00     0.126 A 
ATOM     44  C   UNL     1     -45.219  39.856  27.926  1.00  0.00    -0.019 A 
ATOM     45  H   UNL     1     -46.681  39.784  26.359  1.00  0.00     0.063 H 
ATOM     46  H   UNL     1     -45.085  40.928  27.852  1.00  0.00     0.066 H 
BRANCH  43  47
ATOM     47  N   UNL     1     -43.592  39.701  29.743  1.00  0.00    -0.367 N 
ATOM     48  H   UNL     1     -43.482  39.032  30.502  1.00  0.00     0.162 HD
BRANCH  47  49
ATOM     49  C   UNL     1     -42.384  40.347  29.236  1.00  0.00     0.028 C 
ATOM     50  C   UNL     1     -41.502  41.120  30.179  1.00  0.00    -0.031 C 
ATOM     51  C   UNL     1     -42.288  41.843  29.125  1.00  0.00    -0.031 C 
ATOM     52  H   UNL     1     -41.867  39.750  28.488  1.00  0.00     0.053 H 
ATOM     53  H   UNL     1     -41.821  41.227  31.208  1.00  0.00     0.029 H 
ATOM     54  H   UNL     1     -40.430  41.038  30.048  1.00  0.00     0.029 H 
ATOM     55  H   UNL     1     -43.137  42.435  29.447  1.00  0.00     0.029 H 
ATOM     56  H   UNL     1     -41.750  42.254  28.280  1.00  0.00     0.029 H 
ENDBRANCH  47  49
ENDBRANCH  43  47
ENDBRANCH  31  32
ENDBRANCH   1  31
TORSDOF 8
ENDMDL
MODEL 4
REMARK VINA RESULT:      -9.4      2.276     10.270
REMARK SMILES Nc1ncnc2c1ccn2[C@H]1C[C@H](O)[C@@H](COc2ccc3ccc(NC4CC4)nc3c2)O1
REMARK SMILES IDX 16 1 15 4 11 5 12 6 32 7 13 9 10 14 2 15 3 16 7 17 4 18 6 19
REMARK SMILES IDX 8 20 5 21 9 23 1 26 14 29 17 31 18 32 19 33 31 34 20 35
REMARK SMILES IDX 30 37 21 39 29 41 22 42 24 43 23 44 25 47 26 49 27 50 28 51
REMARK H PARENT 16 2 16 3 11 8 12 10 12 11 13 12 15 13 4 22 8 24 9 25 1 27
REMARK H PARENT 1 28 14 30 19 36 31 38 20 40 22 45 23 46 25 48 26 52 27 53
REMARK H PARENT 27 54 28 55 28 56
REMARK Flexibility Score: inf
ROOT
ATOM      1  C   UNL     1     -48.719  35.226  26.820  1.00  0.00     0.117 C 
ATOM      2  H   UNL     1     -49.735  34.997  26.475  1.00  0.00     0.073 H 
ATOM      3  H   UNL     1     -48.255  35.891  26.082  1.00  0.00     0.073 H 
ENDROOT
BRANCH   1   4
ATOM      4  C   UNL     1     -47.902  33.941  26.950  1.00  0.00     0.120 C 
ATOM      5  C   UNL     1     -47.911  31.807  25.989  1.00  0.00     0.138 C 
ATOM      6  C   UNL     1     -46.505  32.381  25.898  1.00  0.00     0.022 C 
ATOM      7  O   UNL     1     -48.719  32.779  26.690  1.00  0.00    -0.348 OA
ATOM      8  H   UNL     1     -47.939  30.866  26.552  1.00  0.00     0.085 H 
ATOM      9  C   UNL     1     -46.764  33.867  25.940  1.00  0.00     0.088 C 
ATOM     10  H   UNL     1     -45.937  32.077  25.014  1.00  0.00     0.034 H 
ATOM     11  H   UNL     1     -45.915  32.081  26.774  1.00  0.00     0.034 H 
ATOM     12  H   UNL     1     -47.082  34.230  24.956  1.00  0.00     0.063 H 
ATOM     13  H   UNL     1     -47.527  33.850  27.978  1.00  0.00     0.067 H 
BRANCH   5  14
ATOM     14  N   UNL     1     -48.502  31.535  24.681  1.00  0.00    -0.306 N 
ATOM     15  C   UNL     1     -48.105  30.363  21.364  1.00  0.00     0.136 A 
ATOM     16  N   UNL     1     -46.805  30.007  21.347  1.00  0.00    -0.219 NA
ATOM     17  C   UNL     1     -48.649  30.888  22.544  1.00  0.00     0.061 A 
ATOM     18  C   UNL     1     -46.083  30.182  22.471  1.00  0.00     0.120 A 
ATOM     19  C   UNL     1     -47.791  31.006  23.628  1.00  0.00     0.147 A 
ATOM     20  C   UNL     1     -49.919  31.369  22.968  1.00  0.00    -0.031 A 
ATOM     21  N   UNL     1     -46.489  30.674  23.655  1.00  0.00    -0.218 NA
ATOM     22  H   UNL     1     -45.039  29.886  22.411  1.00  0.00     0.106 H 
ATOM     23  C   UNL     1     -49.799  31.757  24.286  1.00  0.00     0.009 A 
ATOM     24  H   UNL     1     -50.823  31.422  22.376  1.00  0.00     0.065 H 
ATOM     25  H   UNL     1     -50.537  32.159  24.969  1.00  0.00     0.082 H 
BRANCH  15  26
ATOM     26  N   UNL     1     -48.835  30.169  20.199  1.00  0.00    -0.383 N 
ATOM     27  H   UNL     1     -49.109  31.059  19.800  1.00  0.00     0.158 HD
ATOM     28  H   UNL     1     -48.437  29.496  19.560  1.00  0.00     0.158 HD
ENDBRANCH  15  26
ENDBRANCH   5  14
BRANCH   9  29
ATOM     29  O   UNL     1     -45.624  34.597  26.355  1.00  0.00    -0.390 OA
ATOM     30  H   UNL     1     -45.544  35.376  25.777  1.00  0.00     0.211 HD
ENDBRANCH   9  29
ENDBRANCH   1   4
BRANCH   1  31
ATOM     31  O   UNL     1     -48.708  35.927  28.076  1.00  0.00    -0.491 OA
BRANCH  31  32
ATOM     32  C   UNL     1     -47.625  36.752  28.194  1.00  0.00     0.121 A 
ATOM     33  C   UNL     1     -46.837  36.640  29.332  1.00  0.00    -0.019 A 
ATOM     34  C   UNL     1     -47.355  37.730  27.236  1.00  0.00     0.007 A 
ATOM     35  C   UNL     1     -45.741  37.486  29.486  1.00  0.00    -0.049 A 
ATOM     36  H   UNL     1     -47.071  35.898  30.090  1.00  0.00     0.066 H 
ATOM     37  C   UNL     1     -46.268  38.582  27.364  1.00  0.00     0.076 A 
ATOM     38  H   UNL     1     -48.008  37.838  26.374  1.00  0.00     0.069 H 
ATOM     39  C   UNL     1     -45.452  38.452  28.506  1.00  0.00     0.001 A 
ATOM     40  H   UNL     1     -45.120  37.392  30.373  1.00  0.00     0.063 H 
ATOM     41  N   UNL     1     -46.028  39.494  26.405  1.00  0.00    -0.231 NA
ATOM     42  C   UNL     1     -44.357  39.312  28.624  1.00  0.00    -0.049 A 
ATOM     43  C   UNL     1     -44.972  40.323  26.541  1.00  0.00     0.126 A 
ATOM     44  C   UNL     1     -44.114  40.254  27.629  1.00  0.00    -0.019 A 
ATOM     45  H   UNL     1     -43.690  39.255  29.478  1.00  0.00     0.063 H 
ATOM     46  H   UNL     1     -43.258  40.915  27.705  1.00  0.00     0.066 H 
BRANCH  43  47
ATOM     47  N   UNL     1     -44.780  41.237  25.493  1.00  0.00    -0.367 N 
ATOM     48  H   UNL     1     -45.591  41.128  24.887  1.00  0.00     0.162 HD
BRANCH  47  49
ATOM     49  C   UNL     1     -44.326  42.597  25.771  1.00  0.00     0.028 C 
ATOM     50  C   UNL     1     -44.049  43.537  24.630  1.00  0.00    -0.031 C 
ATOM     51  C   UNL     1     -42.918  43.026  25.473  1.00  0.00    -0.031 C 
ATOM     52  H   UNL     1     -44.817  43.037  26.637  1.00  0.00     0.053 H 
ATOM     53  H   UNL     1     -44.136  43.157  23.619  1.00  0.00     0.029 H 
ATOM     54  H   UNL     1     -44.342  44.573  24.746  1.00  0.00     0.029 H 
ATOM     55  H   UNL     1     -42.246  42.300  25.029  1.00  0.00     0.029 H 
ATOM     56  H   UNL     1     -42.442  43.715  26.160  1.00  0.00     0.029 H 
ENDBRANCH  47  49
ENDBRANCH  43  47
ENDBRANCH  31  32
ENDBRANCH   1  31
TORSDOF 8
ENDMDL
MODEL 5
REMARK VINA RESULT:      -9.4      2.983     10.571
REMARK SMILES Nc1ncnc2c1ccn2[C@H]1C[C@H](O)[C@@H](COc2ccc3ccc(NC4CC4)nc3c2)O1
REMARK SMILES IDX 16 1 15 4 11 5 12 6 32 7 13 9 10 14 2 15 3 16 7 17 4 18 6 19
REMARK SMILES IDX 8 20 5 21 9 23 1 26 14 29 17 31 18 32 19 33 31 34 20 35
REMARK SMILES IDX 30 37 21 39 29 41 22 42 24 43 23 44 25 47 26 49 27 50 28 51
REMARK H PARENT 16 2 16 3 11 8 12 10 12 11 13 12 15 13 4 22 8 24 9 25 1 27
REMARK H PARENT 1 28 14 30 19 36 31 38 20 40 22 45 23 46 25 48 26 52 27 53
REMARK H PARENT 27 54 28 55 28 56
REMARK Flexibility Score: inf
ROOT
ATOM      1  C   UNL     1     -45.616  38.751  27.517  1.00  0.00     0.117 C 
ATOM      2  H   UNL     1     -46.266  39.288  26.814  1.00  0.00     0.073 H 
ATOM      3  H   UNL     1     -44.880  38.188  26.931  1.00  0.00     0.073 H 
ENDROOT
BRANCH   1   4
ATOM      4  C   UNL     1     -46.442  37.794  28.376  1.00  0.00     0.120 C 
ATOM      5  C   UNL     1     -47.531  35.744  28.084  1.00  0.00     0.138 C 
ATOM      6  C   UNL     1     -46.633  35.653  29.310  1.00  0.00     0.022 C 
ATOM      7  O   UNL     1     -47.419  37.092  27.578  1.00  0.00    -0.348 OA
ATOM      8  H   UNL     1     -48.583  35.553  28.326  1.00  0.00     0.085 H 
ATOM      9  C   UNL     1     -45.592  36.706  29.020  1.00  0.00     0.088 C 
ATOM     10  H   UNL     1     -46.197  34.667  29.493  1.00  0.00     0.034 H 
ATOM     11  H   UNL     1     -47.196  35.925  30.213  1.00  0.00     0.034 H 
ATOM     12  H   UNL     1     -44.841  36.322  28.321  1.00  0.00     0.063 H 
ATOM     13  H   UNL     1     -46.992  38.368  29.133  1.00  0.00     0.067 H 
BRANCH   5  14
ATOM     14  N   UNL     1     -47.160  34.797  27.035  1.00  0.00    -0.306 N 
ATOM     15  C   UNL     1     -48.126  32.251  24.773  1.00  0.00     0.136 A 
ATOM     16  N   UNL     1     -49.447  32.146  25.020  1.00  0.00    -0.219 NA
ATOM     17  C   UNL     1     -47.374  33.186  25.497  1.00  0.00     0.061 A 
ATOM     18  C   UNL     1     -49.984  32.943  25.963  1.00  0.00     0.120 A 
ATOM     19  C   UNL     1     -48.060  33.947  26.434  1.00  0.00     0.147 A 
ATOM     20  C   UNL     1     -46.014  33.598  25.546  1.00  0.00    -0.031 A 
ATOM     21  N   UNL     1     -49.371  33.870  26.720  1.00  0.00    -0.218 NA
ATOM     22  H   UNL     1     -51.051  32.821  26.131  1.00  0.00     0.106 H 
ATOM     23  C   UNL     1     -45.912  34.591  26.498  1.00  0.00     0.009 A 
ATOM     24  H   UNL     1     -45.198  33.213  24.948  1.00  0.00     0.065 H 
ATOM     25  H   UNL     1     -45.055  35.168  26.820  1.00  0.00     0.082 H 
BRANCH  15  26
ATOM     26  N   UNL     1     -47.592  31.426  23.793  1.00  0.00    -0.383 N 
ATOM     27  H   UNL     1     -48.038  31.601  22.900  1.00  0.00     0.158 HD
ATOM     28  H   UNL     1     -46.582  31.379  23.787  1.00  0.00     0.158 HD
ENDBRANCH  15  26
ENDBRANCH   5  14
BRANCH   9  29
ATOM     29  O   UNL     1     -44.942  37.153  30.197  1.00  0.00    -0.390 OA
ATOM     30  H   UNL     1     -44.533  38.014  30.001  1.00  0.00     0.211 HD
ENDBRANCH   9  29
ENDBRANCH   1   4
BRANCH   1  31
ATOM     31  O   UNL     1     -44.875  39.640  28.371  1.00  0.00    -0.491 OA
BRANCH  31  32
ATOM     32  C   UNL     1     -44.143  40.546  27.656  1.00  0.00     0.121 A 
ATOM     33  C   UNL     1     -42.975  41.038  28.224  1.00  0.00    -0.019 A 
ATOM     34  C   UNL     1     -44.589  41.021  26.423  1.00  0.00     0.007 A 
ATOM     35  C   UNL     1     -42.223  41.980  27.525  1.00  0.00    -0.049 A 
ATOM     36  H   UNL     1     -42.650  40.688  29.199  1.00  0.00     0.066 H 
ATOM     37  C   UNL     1     -43.857  41.956  25.705  1.00  0.00     0.076 A 
ATOM     38  H   UNL     1     -45.529  40.664  26.013  1.00  0.00     0.069 H 
ATOM     39  C   UNL     1     -42.657  42.437  26.268  1.00  0.00     0.001 A 
ATOM     40  H   UNL     1     -41.304  42.358  27.966  1.00  0.00     0.063 H 
ATOM     41  N   UNL     1     -44.308  42.370  24.508  1.00  0.00    -0.231 NA
ATOM     42  C   UNL     1     -41.925  43.375  25.536  1.00  0.00    -0.049 A 
ATOM     43  C   UNL     1     -43.595  43.284  23.819  1.00  0.00     0.126 A 
ATOM     44  C   UNL     1     -42.398  43.800  24.297  1.00  0.00    -0.019 A 
ATOM     45  H   UNL     1     -40.991  43.777  25.916  1.00  0.00     0.063 H 
ATOM     46  H   UNL     1     -41.829  44.516  23.716  1.00  0.00     0.066 H 
BRANCH  43  47
ATOM     47  N   UNL     1     -44.124  43.654  22.573  1.00  0.00    -0.367 N 
ATOM     48  H   UNL     1     -44.299  42.779  22.083  1.00  0.00     0.162 HD
BRANCH  47  49
ATOM     49  C   UNL     1     -45.146  44.693  22.482  1.00  0.00     0.028 C 
ATOM     50  C   UNL     1     -45.219  45.562  21.256  1.00  0.00    -0.031 C 
ATOM     51  C   UNL     1     -44.789  46.149  22.568  1.00  0.00    -0.031 C 
ATOM     52  H   UNL     1     -46.103  44.381  22.897  1.00  0.00     0.053 H 
ATOM     53  H   UNL     1     -44.464  45.432  20.490  1.00  0.00     0.029 H 
ATOM     54  H   UNL     1     -46.200  45.822  20.878  1.00  0.00     0.029 H 
ATOM     55  H   UNL     1     -43.744  46.414  22.685  1.00  0.00     0.029 H 
ATOM     56  H   UNL     1     -45.478  46.811  23.080  1.00  0.00     0.029 H 
ENDBRANCH  47  49
ENDBRANCH  43  47
ENDBRANCH  31  32
ENDBRANCH   1  31
TORSDOF 8
ENDMDL
MODEL 6
REMARK VINA RESULT:      -9.3      2.088      2.879
REMARK SMILES Nc1ncnc2c1ccn2[C@H]1C[C@H](O)[C@@H](COc2ccc3ccc(NC4CC4)nc3c2)O1
REMARK SMILES IDX 16 1 15 4 11 5 12 6 32 7 13 9 10 14 2 15 3 16 7 17 4 18 6 19
REMARK SMILES IDX 8 20 5 21 9 23 1 26 14 29 17 31 18 32 19 33 31 34 20 35
REMARK SMILES IDX 30 37 21 39 29 41 22 42 24 43 23 44 25 47 26 49 27 50 28 51
REMARK H PARENT 16 2 16 3 11 8 12 10 12 11 13 12 15 13 4 22 8 24 9 25 1 27
REMARK H PARENT 1 28 14 30 19 36 31 38 20 40 22 45 23 46 25 48 26 52 27 53
REMARK H PARENT 27 54 28 55 28 56
REMARK Flexibility Score: inf
ROOT
ATOM      1  C   UNL     1     -47.343  34.788  27.970  1.00  0.00     0.117 C 
ATOM      2  H   UNL     1     -48.186  35.126  28.586  1.00  0.00     0.073 H 
ATOM      3  H   UNL     1     -47.204  33.716  28.150  1.00  0.00     0.073 H 
ENDROOT
BRANCH   1   4
ATOM      4  C   UNL     1     -46.073  35.550  28.347  1.00  0.00     0.120 C 
ATOM      5  C   UNL     1     -45.107  37.619  27.835  1.00  0.00     0.138 C 
ATOM      6  C   UNL     1     -45.144  37.454  29.348  1.00  0.00     0.022 C 
ATOM      7  O   UNL     1     -45.640  36.402  27.266  1.00  0.00    -0.348 OA
ATOM      8  H   UNL     1     -44.088  37.759  27.458  1.00  0.00     0.085 H 
ATOM      9  C   UNL     1     -46.282  36.480  29.535  1.00  0.00     0.088 C 
ATOM     10  H   UNL     1     -45.285  38.381  29.912  1.00  0.00     0.034 H 
ATOM     11  H   UNL     1     -44.207  37.005  29.703  1.00  0.00     0.034 H 
ATOM     12  H   UNL     1     -47.246  36.998  29.470  1.00  0.00     0.063 H 
ATOM     13  H   UNL     1     -45.263  34.834  28.541  1.00  0.00     0.067 H 
BRANCH   5  14
ATOM     14  N   UNL     1     -45.892  38.760  27.367  1.00  0.00    -0.306 N 
ATOM     15  C   UNL     1     -46.007  42.165  26.406  1.00  0.00     0.136 A 
ATOM     16  N   UNL     1     -44.718  42.536  26.538  1.00  0.00    -0.219 NA
ATOM     17  C   UNL     1     -46.366  40.844  26.706  1.00  0.00     0.061 A 
ATOM     18  C   UNL     1     -43.831  41.615  26.961  1.00  0.00     0.120 A 
ATOM     19  C   UNL     1     -45.347  40.000  27.125  1.00  0.00     0.147 A 
ATOM     20  C   UNL     1     -47.563  40.076  26.702  1.00  0.00    -0.031 A 
ATOM     21  N   UNL     1     -44.053  40.327  27.279  1.00  0.00    -0.218 NA
ATOM     22  H   UNL     1     -42.804  41.959  27.057  1.00  0.00     0.106 H 
ATOM     23  C   UNL     1     -47.241  38.798  27.111  1.00  0.00     0.009 A 
ATOM     24  H   UNL     1     -48.552  40.418  26.428  1.00  0.00     0.065 H 
ATOM     25  H   UNL     1     -47.864  37.920  27.225  1.00  0.00     0.082 H 
BRANCH  15  26
ATOM     26  N   UNL     1     -46.906  43.125  25.962  1.00  0.00    -0.383 N 
ATOM     27  H   UNL     1     -47.855  42.853  26.186  1.00  0.00     0.158 HD
ATOM     28  H   UNL     1     -46.649  44.077  26.184  1.00  0.00     0.158 HD
ENDBRANCH  15  26
ENDBRANCH   5  14
BRANCH   9  29
ATOM     29  O   UNL     1     -46.205  35.801  30.775  1.00  0.00    -0.390 OA
ATOM     30  H   UNL     1     -47.092  35.812  31.175  1.00  0.00     0.211 HD
ENDBRANCH   9  29
ENDBRANCH   1   4
BRANCH   1  31
ATOM     31  O   UNL     1     -47.592  34.943  26.561  1.00  0.00    -0.491 OA
BRANCH  31  32
ATOM     32  C   UNL     1     -47.398  33.777  25.875  1.00  0.00     0.121 A 
ATOM     33  C   UNL     1     -46.341  33.715  24.976  1.00  0.00    -0.019 A 
ATOM     34  C   UNL     1     -48.277  32.703  26.015  1.00  0.00     0.007 A 
ATOM     35  C   UNL     1     -46.137  32.546  24.247  1.00  0.00    -0.049 A 
ATOM     36  H   UNL     1     -45.679  34.566  24.847  1.00  0.00     0.066 H 
ATOM     37  C   UNL     1     -48.094  31.526  25.303  1.00  0.00     0.076 A 
ATOM     38  H   UNL     1     -49.128  32.783  26.685  1.00  0.00     0.069 H 
ATOM     39  C   UNL     1     -47.005  31.452  24.410  1.00  0.00     0.001 A 
ATOM     40  H   UNL     1     -45.304  32.494  23.550  1.00  0.00     0.063 H 
ATOM     41  N   UNL     1     -48.948  30.504  25.486  1.00  0.00    -0.231 NA
ATOM     42  C   UNL     1     -46.827  30.261  23.702  1.00  0.00    -0.049 A 
ATOM     43  C   UNL     1     -48.767  29.366  24.786  1.00  0.00     0.126 A 
ATOM     44  C   UNL     1     -47.716  29.207  23.894  1.00  0.00    -0.019 A 
ATOM     45  H   UNL     1     -46.004  30.142  23.004  1.00  0.00     0.063 H 
ATOM     46  H   UNL     1     -47.576  28.275  23.360  1.00  0.00     0.066 H 
BRANCH  43  47
ATOM     47  N   UNL     1     -49.692  28.342  25.042  1.00  0.00    -0.367 N 
ATOM     48  H   UNL     1     -50.019  28.038  24.127  1.00  0.00     0.162 HD
BRANCH  47  49
ATOM     49  C   UNL     1     -49.395  27.306  26.028  1.00  0.00     0.028 C 
ATOM     50  C   UNL     1     -48.697  26.045  25.596  1.00  0.00    -0.031 C 
ATOM     51  C   UNL     1     -50.132  25.997  26.031  1.00  0.00    -0.031 C 
ATOM     52  H   UNL     1     -49.084  27.714  26.988  1.00  0.00     0.053 H 
ATOM     53  H   UNL     1     -48.484  25.912  24.543  1.00  0.00     0.029 H 
ATOM     54  H   UNL     1     -47.950  25.629  26.260  1.00  0.00     0.029 H 
ATOM     55  H   UNL     1     -50.885  25.833  25.268  1.00  0.00     0.029 H 
ATOM     56  H   UNL     1     -50.360  25.546  26.989  1.00  0.00     0.029 H 
ENDBRANCH  47  49
ENDBRANCH  43  47
ENDBRANCH  31  32
ENDBRANCH   1  31
TORSDOF 8
ENDMDL
MODEL 7
REMARK VINA RESULT:      -9.3      4.425     11.202
REMARK SMILES Nc1ncnc2c1ccn2[C@H]1C[C@H](O)[C@@H](COc2ccc3ccc(NC4CC4)nc3c2)O1
REMARK SMILES IDX 16 1 15 4 11 5 12 6 32 7 13 9 10 14 2 15 3 16 7 17 4 18 6 19
REMARK SMILES IDX 8 20 5 21 9 23 1 26 14 29 17 31 18 32 19 33 31 34 20 35
REMARK SMILES IDX 30 37 21 39 29 41 22 42 24 43 23 44 25 47 26 49 27 50 28 51
REMARK H PARENT 16 2 16 3 11 8 12 10 12 11 13 12 15 13 4 22 8 24 9 25 1 27
REMARK H PARENT 1 28 14 30 19 36 31 38 20 40 22 45 23 46 25 48 26 52 27 53
REMARK H PARENT 27 54 28 55 28 56
REMARK Flexibility Score: inf
ROOT
ATOM      1  C   UNL     1     -47.938  31.555  23.907  1.00  0.00     0.117 C 
ATOM      2  H   UNL     1     -47.729  32.504  23.397  1.00  0.00     0.073 H 
ATOM      3  H   UNL     1     -47.025  30.950  23.877  1.00  0.00     0.073 H 
ENDROOT
BRANCH   1   4
ATOM      4  C   UNL     1     -49.078  30.817  23.206  1.00  0.00     0.120 C 
ATOM      5  C   UNL     1     -49.887  28.623  23.108  1.00  0.00     0.138 C 
ATOM      6  C   UNL     1     -51.042  29.559  23.432  1.00  0.00     0.022 C 
ATOM      7  O   UNL     1     -48.714  29.448  22.927  1.00  0.00    -0.348 OA
ATOM      8  H   UNL     1     -50.057  28.058  22.184  1.00  0.00     0.085 H 
ATOM      9  C   UNL     1     -50.334  30.733  24.063  1.00  0.00     0.088 C 
ATOM     10  H   UNL     1     -51.815  29.134  24.079  1.00  0.00     0.034 H 
ATOM     11  H   UNL     1     -51.541  29.879  22.507  1.00  0.00     0.034 H 
ATOM     12  H   UNL     1     -50.088  30.517  25.109  1.00  0.00     0.063 H 
ATOM     13  H   UNL     1     -49.286  31.300  22.242  1.00  0.00     0.067 H 
BRANCH   5  14
ATOM     14  N   UNL     1     -49.634  27.643  24.163  1.00  0.00    -0.306 N 
ATOM     15  C   UNL     1     -47.315  25.685  25.983  1.00  0.00     0.136 A 
ATOM     16  N   UNL     1     -46.144  26.045  25.422  1.00  0.00    -0.219 NA
ATOM     17  C   UNL     1     -48.500  26.266  25.513  1.00  0.00     0.061 A 
ATOM     18  C   UNL     1     -46.168  26.948  24.423  1.00  0.00     0.120 A 
ATOM     19  C   UNL     1     -48.376  27.188  24.483  1.00  0.00     0.147 A 
ATOM     20  C   UNL     1     -49.886  26.168  25.815  1.00  0.00    -0.031 A 
ATOM     21  N   UNL     1     -47.233  27.571  23.887  1.00  0.00    -0.218 NA
ATOM     22  H   UNL     1     -45.202  27.206  23.997  1.00  0.00     0.106 H 
ATOM     23  C   UNL     1     -50.559  27.027  24.971  1.00  0.00     0.009 A 
ATOM     24  H   UNL     1     -50.342  25.541  26.568  1.00  0.00     0.065 H 
ATOM     25  H   UNL     1     -51.615  27.252  24.895  1.00  0.00     0.082 H 
BRANCH  15  26
ATOM     26  N   UNL     1     -47.269  24.758  27.017  1.00  0.00    -0.383 N 
ATOM     27  H   UNL     1     -46.927  25.191  27.866  1.00  0.00     0.158 HD
ATOM     28  H   UNL     1     -48.099  24.189  27.107  1.00  0.00     0.158 HD
ENDBRANCH  15  26
ENDBRANCH   5  14
BRANCH   9  29
ATOM     29  O   UNL     1     -51.108  31.917  24.006  1.00  0.00    -0.390 OA
ATOM     30  H   UNL     1     -50.742  32.543  24.656  1.00  0.00     0.211 HD
ENDBRANCH   9  29
ENDBRANCH   1   4
BRANCH   1  31
ATOM     31  O   UNL     1     -48.271  31.737  25.295  1.00  0.00    -0.491 OA
BRANCH  31  32
ATOM     32  C   UNL     1     -47.867  32.956  25.763  1.00  0.00     0.121 A 
ATOM     33  C   UNL     1     -46.514  33.263  25.708  1.00  0.00    -0.019 A 
ATOM     34  C   UNL     1     -48.775  33.840  26.348  1.00  0.00     0.007 A 
ATOM     35  C   UNL     1     -46.075  34.490  26.200  1.00  0.00    -0.049 A 
ATOM     36  H   UNL     1     -45.809  32.557  25.281  1.00  0.00     0.066 H 
ATOM     37  C   UNL     1     -48.363  35.070  26.842  1.00  0.00     0.076 A 
ATOM     38  H   UNL     1     -49.823  33.566  26.429  1.00  0.00     0.069 H 
ATOM     39  C   UNL     1     -46.994  35.395  26.762  1.00  0.00     0.001 A 
ATOM     40  H   UNL     1     -45.017  34.735  26.148  1.00  0.00     0.063 H 
ATOM     41  N   UNL     1     -49.273  35.904  27.374  1.00  0.00    -0.231 NA
ATOM     42  C   UNL     1     -46.591  36.637  27.259  1.00  0.00    -0.049 A 
ATOM     43  C   UNL     1     -48.865  37.095  27.859  1.00  0.00     0.126 A 
ATOM     44  C   UNL     1     -47.537  37.496  27.810  1.00  0.00    -0.019 A 
ATOM     45  H   UNL     1     -45.551  36.945  27.220  1.00  0.00     0.063 H 
ATOM     46  H   UNL     1     -47.235  38.467  28.184  1.00  0.00     0.066 H 
BRANCH  43  47
ATOM     47  N   UNL     1     -49.875  37.915  28.386  1.00  0.00    -0.367 N 
ATOM     48  H   UNL     1     -49.859  38.761  27.818  1.00  0.00     0.162 HD
BRANCH  47  49
ATOM     49  C   UNL     1     -51.181  37.356  28.724  1.00  0.00     0.028 C 
ATOM     50  C   UNL     1     -52.425  37.957  28.127  1.00  0.00    -0.031 C 
ATOM     51  C   UNL     1     -52.148  38.107  29.594  1.00  0.00    -0.031 C 
ATOM     52  H   UNL     1     -51.169  36.271  28.799  1.00  0.00     0.053 H 
ATOM     53  H   UNL     1     -52.321  38.835  27.502  1.00  0.00     0.029 H 
ATOM     54  H   UNL     1     -53.216  37.282  27.824  1.00  0.00     0.029 H 
ATOM     55  H   UNL     1     -51.858  39.087  29.955  1.00  0.00     0.029 H 
ATOM     56  H   UNL     1     -52.754  37.536  30.288  1.00  0.00     0.029 H 
ENDBRANCH  47  49
ENDBRANCH  43  47
ENDBRANCH  31  32
ENDBRANCH   1  31
TORSDOF 8
ENDMDL
