MODEL 1
REMARK VINA RESULT:     -10.5      0.000      0.000
REMARK SMILES CNc1ccc2ccc(OCc3cncc(-n4cc(-c5ncco5)c5c(N)ncnc54)c3)cc2n1
REMARK SMILES IDX 11 1 10 4 9 5 3 6 4 7 35 8 5 9 34 11 6 12 33 14 7 15 8 17
REMARK SMILES IDX 2 20 1 22 12 26 13 27 32 28 14 29 16 31 15 33 17 35 18 36
REMARK SMILES IDX 31 37 19 38 25 40 30 41 26 42 29 43 28 44 20 46 21 47 24 48
REMARK SMILES IDX 22 49 23 50 27 53
REMARK H PARENT 11 2 11 3 4 10 5 13 33 16 7 18 8 19 2 21 1 23 1 24 1 25 13 30
REMARK H PARENT 32 32 15 34 18 39 29 45 22 51 23 52 27 54 27 55
REMARK Flexibility Score: inf
ROOT
ATOM      1  C   UNL     1     -48.372  35.780  26.973  1.00  0.00     0.115 C 
ATOM      2  H   UNL     1     -49.355  36.258  27.061  1.00  0.00     0.076 H 
ATOM      3  H   UNL     1     -48.062  35.911  25.929  1.00  0.00     0.076 H 
ENDROOT
BRANCH   1   4
ATOM      4  O   UNL     1     -48.483  34.367  27.173  1.00  0.00    -0.489 OA
BRANCH   4   5
ATOM      5  C   UNL     1     -47.881  33.531  26.270  1.00  0.00     0.122 A 
ATOM      6  C   UNL     1     -48.308  29.271  24.182  1.00  0.00     0.126 A 
ATOM      7  C   UNL     1     -47.191  29.501  23.388  1.00  0.00    -0.019 A 
ATOM      8  N   UNL     1     -48.726  30.177  25.090  1.00  0.00    -0.231 NA
ATOM      9  C   UNL     1     -46.500  30.703  23.508  1.00  0.00    -0.049 A 
ATOM     10  H   UNL     1     -46.853  28.747  22.684  1.00  0.00     0.066 H 
ATOM     11  C   UNL     1     -48.060  31.341  25.214  1.00  0.00     0.076 A 
ATOM     12  C   UNL     1     -46.935  31.655  24.431  1.00  0.00     0.001 A 
ATOM     13  H   UNL     1     -45.630  30.884  22.884  1.00  0.00     0.063 H 
ATOM     14  C   UNL     1     -48.498  32.283  26.133  1.00  0.00     0.007 A 
ATOM     15  C   UNL     1     -46.287  32.892  24.586  1.00  0.00    -0.049 A 
ATOM     16  H   UNL     1     -49.372  32.052  26.737  1.00  0.00     0.069 H 
ATOM     17  C   UNL     1     -46.762  33.831  25.503  1.00  0.00    -0.019 A 
ATOM     18  H   UNL     1     -45.414  33.136  23.983  1.00  0.00     0.063 H 
ATOM     19  H   UNL     1     -46.240  34.778  25.586  1.00  0.00     0.066 H 
BRANCH   6  20
ATOM     20  N   UNL     1     -48.973  28.040  24.044  1.00  0.00    -0.373 N 
ATOM     21  H   UNL     1     -48.403  27.309  24.460  1.00  0.00     0.161 HD
BRANCH  20  22
ATOM     22  C   UNL     1     -49.354  27.713  22.680  1.00  0.00     0.005 C 
ATOM     23  H   UNL     1     -49.873  26.750  22.625  1.00  0.00     0.045 H 
ATOM     24  H   UNL     1     -48.485  27.703  22.011  1.00  0.00     0.045 H 
ATOM     25  H   UNL     1     -50.040  28.481  22.309  1.00  0.00     0.045 H 
ENDBRANCH  20  22
ENDBRANCH   6  20
ENDBRANCH   4   5
ENDBRANCH   1   4
BRANCH   1  26
ATOM     26  C   UNL     1     -47.339  36.469  27.833  1.00  0.00     0.010 A 
ATOM     27  C   UNL     1     -47.023  35.950  29.082  1.00  0.00     0.034 A 
ATOM     28  C   UNL     1     -46.694  37.655  27.453  1.00  0.00    -0.028 A 
ATOM     29  N   UNL     1     -46.125  36.502  29.928  1.00  0.00    -0.262 NA
ATOM     30  H   UNL     1     -47.497  35.046  29.456  1.00  0.00     0.084 H 
ATOM     31  C   UNL     1     -45.731  38.240  28.280  1.00  0.00     0.066 A 
ATOM     32  H   UNL     1     -46.971  38.111  26.508  1.00  0.00     0.065 H 
ATOM     33  C   UNL     1     -45.499  37.628  29.507  1.00  0.00     0.051 A 
ATOM     34  H   UNL     1     -44.765  37.992  30.219  1.00  0.00     0.086 H 
BRANCH  31  35
ATOM     35  N   UNL     1     -45.006  39.408  27.888  1.00  0.00    -0.299 N 
ATOM     36  C   UNL     1     -45.294  40.189  26.782  1.00  0.00     0.025 A 
ATOM     37  C   UNL     1     -43.914  39.988  28.536  1.00  0.00     0.150 A 
ATOM     38  C   UNL     1     -44.393  41.229  26.721  1.00  0.00     0.068 A 
ATOM     39  H   UNL     1     -46.101  39.948  26.105  1.00  0.00     0.083 H 
ATOM     40  C   UNL     1     -43.501  41.107  27.814  1.00  0.00     0.074 A 
ATOM     41  N   UNL     1     -43.362  39.574  29.693  1.00  0.00    -0.218 NA
ATOM     42  C   UNL     1     -42.389  41.808  28.309  1.00  0.00     0.137 A 
ATOM     43  C   UNL     1     -42.339  40.339  30.091  1.00  0.00     0.120 A 
ATOM     44  N   UNL     1     -41.830  41.415  29.470  1.00  0.00    -0.219 NA
ATOM     45  H   UNL     1     -41.861  40.055  31.024  1.00  0.00     0.106 H 
BRANCH  38  46
ATOM     46  C   UNL     1     -44.430  42.329  25.616  1.00  0.00     0.228 A 
ATOM     47  N   UNL     1     -44.635  43.613  25.860  1.00  0.00    -0.218 NA
ATOM     48  O   UNL     1     -44.274  42.049  24.278  1.00  0.00    -0.444 OA
ATOM     49  C   UNL     1     -44.595  44.205  24.624  1.00  0.00     0.066 A 
ATOM     50  C   UNL     1     -44.377  43.256  23.661  1.00  0.00     0.112 A 
ATOM     51  H   UNL     1     -44.724  45.271  24.495  1.00  0.00     0.087 H 
ATOM     52  H   UNL     1     -44.274  43.261  22.586  1.00  0.00     0.106 H 
ENDBRANCH  38  46
BRANCH  42  53
ATOM     53  N   UNL     1     -41.817  42.896  27.680  1.00  0.00    -0.383 N 
ATOM     54  H   UNL     1     -41.034  43.338  28.159  1.00  0.00     0.158 HD
ATOM     55  H   UNL     1     -41.769  42.799  26.676  1.00  0.00     0.158 HD
ENDBRANCH  42  53
ENDBRANCH  31  35
ENDBRANCH   1  26
TORSDOF 8
ENDMDL
MODEL 2
REMARK VINA RESULT:     -10.5      1.663      2.113
REMARK SMILES CNc1ccc2ccc(OCc3cncc(-n4cc(-c5ncco5)c5c(N)ncnc54)c3)cc2n1
REMARK SMILES IDX 11 1 10 4 9 5 3 6 4 7 35 8 5 9 34 11 6 12 33 14 7 15 8 17
REMARK SMILES IDX 2 20 1 22 12 26 13 27 32 28 14 29 16 31 15 33 17 35 18 36
REMARK SMILES IDX 31 37 19 38 25 40 30 41 26 42 29 43 28 44 20 46 21 47 24 48
REMARK SMILES IDX 22 49 23 50 27 53
REMARK H PARENT 11 2 11 3 4 10 5 13 33 16 7 18 8 19 2 21 1 23 1 24 1 25 13 30
REMARK H PARENT 32 32 15 34 18 39 29 45 22 51 23 52 27 54 27 55
REMARK Flexibility Score: inf
ROOT
ATOM      1  C   UNL     1     -46.299  34.419  27.163  1.00  0.00     0.115 C 
ATOM      2  H   UNL     1     -45.788  34.266  26.205  1.00  0.00     0.076 H 
ATOM      3  H   UNL     1     -45.565  34.179  27.942  1.00  0.00     0.076 H 
ENDROOT
BRANCH   1   4
ATOM      4  O   UNL     1     -47.358  33.468  27.321  1.00  0.00    -0.489 OA
BRANCH   4   5
ATOM      5  C   UNL     1     -47.834  32.831  26.206  1.00  0.00     0.122 A 
ATOM      6  C   UNL     1     -46.459  30.309  22.406  1.00  0.00     0.126 A 
ATOM      7  C   UNL     1     -47.776  30.111  22.008  1.00  0.00    -0.019 A 
ATOM      8  N   UNL     1     -46.156  31.037  23.499  1.00  0.00    -0.231 NA
ATOM      9  C   UNL     1     -48.810  30.652  22.765  1.00  0.00    -0.049 A 
ATOM     10  H   UNL     1     -47.998  29.545  21.108  1.00  0.00     0.066 H 
ATOM     11  C   UNL     1     -47.151  31.567  24.235  1.00  0.00     0.076 A 
ATOM     12  C   UNL     1     -48.508  31.392  23.909  1.00  0.00     0.001 A 
ATOM     13  H   UNL     1     -49.839  30.493  22.456  1.00  0.00     0.063 H 
ATOM     14  C   UNL     1     -46.843  32.302  25.371  1.00  0.00     0.007 A 
ATOM     15  C   UNL     1     -49.510  31.950  24.721  1.00  0.00    -0.049 A 
ATOM     16  H   UNL     1     -45.798  32.435  25.636  1.00  0.00     0.069 H 
ATOM     17  C   UNL     1     -49.173  32.665  25.871  1.00  0.00    -0.019 A 
ATOM     18  H   UNL     1     -50.560  31.819  24.468  1.00  0.00     0.063 H 
ATOM     19  H   UNL     1     -49.975  33.073  26.477  1.00  0.00     0.066 H 
BRANCH   6  20
ATOM     20  N   UNL     1     -45.440  29.759  21.608  1.00  0.00    -0.373 N 
ATOM     21  H   UNL     1     -45.856  29.350  20.776  1.00  0.00     0.161 HD
BRANCH  20  22
ATOM     22  C   UNL     1     -44.580  28.813  22.300  1.00  0.00     0.005 C 
ATOM     23  H   UNL     1     -45.151  28.169  22.978  1.00  0.00     0.045 H 
ATOM     24  H   UNL     1     -43.786  29.324  22.858  1.00  0.00     0.045 H 
ATOM     25  H   UNL     1     -44.095  28.168  21.561  1.00  0.00     0.045 H 
ENDBRANCH  20  22
ENDBRANCH   6  20
ENDBRANCH   4   5
ENDBRANCH   1   4
BRANCH   1  26
ATOM     26  C   UNL     1     -46.700  35.862  27.357  1.00  0.00     0.010 A 
ATOM     27  C   UNL     1     -48.029  36.182  27.602  1.00  0.00     0.034 A 
ATOM     28  C   UNL     1     -45.793  36.927  27.264  1.00  0.00    -0.028 A 
ATOM     29  N   UNL     1     -48.486  37.442  27.774  1.00  0.00    -0.262 NA
ATOM     30  H   UNL     1     -48.795  35.413  27.667  1.00  0.00     0.084 H 
ATOM     31  C   UNL     1     -46.215  38.243  27.471  1.00  0.00     0.066 A 
ATOM     32  H   UNL     1     -44.762  36.704  27.013  1.00  0.00     0.065 H 
ATOM     33  C   UNL     1     -47.571  38.440  27.709  1.00  0.00     0.051 A 
ATOM     34  H   UNL     1     -48.002  39.419  27.896  1.00  0.00     0.086 H 
BRANCH  31  35
ATOM     35  N   UNL     1     -45.301  39.342  27.453  1.00  0.00    -0.299 N 
ATOM     36  C   UNL     1     -45.277  40.341  26.496  1.00  0.00     0.025 A 
ATOM     37  C   UNL     1     -44.299  39.630  28.383  1.00  0.00     0.150 A 
ATOM     38  C   UNL     1     -44.271  41.231  26.802  1.00  0.00     0.068 A 
ATOM     39  H   UNL     1     -45.957  40.346  25.656  1.00  0.00     0.083 H 
ATOM     40  C   UNL     1     -43.630  40.786  27.983  1.00  0.00     0.074 A 
ATOM     41  N   UNL     1     -44.035  38.939  29.509  1.00  0.00    -0.218 NA
ATOM     42  C   UNL     1     -42.566  41.216  28.793  1.00  0.00     0.137 A 
ATOM     43  C   UNL     1     -43.031  39.463  30.223  1.00  0.00     0.120 A 
ATOM     44  N   UNL     1     -42.293  40.545  29.928  1.00  0.00    -0.219 NA
ATOM     45  H   UNL     1     -42.781  38.950  31.147  1.00  0.00     0.106 H 
BRANCH  38  46
ATOM     46  C   UNL     1     -43.967  42.503  25.952  1.00  0.00     0.228 A 
ATOM     47  N   UNL     1     -44.246  42.614  24.664  1.00  0.00    -0.218 NA
ATOM     48  O   UNL     1     -43.357  43.621  26.474  1.00  0.00    -0.444 OA
ATOM     49  C   UNL     1     -43.813  43.871  24.328  1.00  0.00     0.066 A 
ATOM     50  C   UNL     1     -43.271  44.484  25.427  1.00  0.00     0.112 A 
ATOM     51  H   UNL     1     -43.912  44.262  23.325  1.00  0.00     0.087 H 
ATOM     52  H   UNL     1     -42.820  45.445  25.626  1.00  0.00     0.106 H 
ENDBRANCH  38  46
BRANCH  42  53
ATOM     53  N   UNL     1     -41.763  42.302  28.505  1.00  0.00    -0.383 N 
ATOM     54  H   UNL     1     -41.574  42.945  29.272  1.00  0.00     0.158 HD
ATOM     55  H   UNL     1     -41.011  42.087  27.866  1.00  0.00     0.158 HD
ENDBRANCH  42  53
ENDBRANCH  31  35
ENDBRANCH   1  26
TORSDOF 8
ENDMDL
MODEL 3
REMARK VINA RESULT:     -10.3      2.528     11.753
REMARK SMILES CNc1ccc2ccc(OCc3cncc(-n4cc(-c5ncco5)c5c(N)ncnc54)c3)cc2n1
REMARK SMILES IDX 11 1 10 4 9 5 3 6 4 7 35 8 5 9 34 11 6 12 33 14 7 15 8 17
REMARK SMILES IDX 2 20 1 22 12 26 13 27 32 28 14 29 16 31 15 33 17 35 18 36
REMARK SMILES IDX 31 37 19 38 25 40 30 41 26 42 29 43 28 44 20 46 21 47 24 48
REMARK SMILES IDX 22 49 23 50 27 53
REMARK H PARENT 11 2 11 3 4 10 5 13 33 16 7 18 8 19 2 21 1 23 1 24 1 25 13 30
REMARK H PARENT 32 32 15 34 18 39 29 45 22 51 23 52 27 54 27 55
REMARK Flexibility Score: inf
ROOT
ATOM      1  C   UNL     1     -48.927  35.292  26.977  1.00  0.00     0.115 C 
ATOM      2  H   UNL     1     -49.089  36.169  26.339  1.00  0.00     0.076 H 
ATOM      3  H   UNL     1     -49.915  34.840  27.131  1.00  0.00     0.076 H 
ENDROOT
BRANCH   1   4
ATOM      4  O   UNL     1     -48.476  35.695  28.274  1.00  0.00    -0.489 OA
BRANCH   4   5
ATOM      5  C   UNL     1     -47.397  36.536  28.357  1.00  0.00     0.122 A 
ATOM      6  C   UNL     1     -45.587  40.565  26.575  1.00  0.00     0.126 A 
ATOM      7  C   UNL     1     -44.503  40.512  27.442  1.00  0.00    -0.019 A 
ATOM      8  N   UNL     1     -46.532  39.602  26.567  1.00  0.00    -0.231 NA
ATOM      9  C   UNL     1     -44.398  39.458  28.344  1.00  0.00    -0.049 A 
ATOM     10  H   UNL     1     -43.738  41.281  27.412  1.00  0.00     0.066 H 
ATOM     11  C   UNL     1     -46.435  38.578  27.435  1.00  0.00     0.076 A 
ATOM     12  C   UNL     1     -45.379  38.466  28.358  1.00  0.00     0.001 A 
ATOM     13  H   UNL     1     -43.552  39.420  29.025  1.00  0.00     0.063 H 
ATOM     14  C   UNL     1     -47.414  37.595  27.443  1.00  0.00     0.007 A 
ATOM     15  C   UNL     1     -45.334  37.386  29.256  1.00  0.00    -0.049 A 
ATOM     16  H   UNL     1     -48.238  37.677  26.740  1.00  0.00     0.069 H 
ATOM     17  C   UNL     1     -46.345  36.424  29.258  1.00  0.00    -0.019 A 
ATOM     18  H   UNL     1     -44.516  37.296  29.969  1.00  0.00     0.063 H 
ATOM     19  H   UNL     1     -46.279  35.611  29.973  1.00  0.00     0.066 H 
BRANCH   6  20
ATOM     20  N   UNL     1     -45.653  41.637  25.667  1.00  0.00    -0.373 N 
ATOM     21  H   UNL     1     -46.173  41.342  24.845  1.00  0.00     0.161 HD
BRANCH  20  22
ATOM     22  C   UNL     1     -44.362  42.203  25.311  1.00  0.00     0.005 C 
ATOM     23  H   UNL     1     -44.099  43.046  25.960  1.00  0.00     0.045 H 
ATOM     24  H   UNL     1     -44.338  42.521  24.263  1.00  0.00     0.045 H 
ATOM     25  H   UNL     1     -43.592  41.435  25.436  1.00  0.00     0.045 H 
ENDBRANCH  20  22
ENDBRANCH   6  20
ENDBRANCH   4   5
ENDBRANCH   1   4
BRANCH   1  26
ATOM     26  C   UNL     1     -48.066  34.256  26.293  1.00  0.00     0.010 A 
ATOM     27  C   UNL     1     -46.713  34.500  26.103  1.00  0.00     0.034 A 
ATOM     28  C   UNL     1     -48.575  33.049  25.790  1.00  0.00    -0.028 A 
ATOM     29  N   UNL     1     -45.866  33.642  25.490  1.00  0.00    -0.262 NA
ATOM     30  H   UNL     1     -46.249  35.421  26.445  1.00  0.00     0.084 H 
ATOM     31  C   UNL     1     -47.729  32.117  25.182  1.00  0.00     0.066 A 
ATOM     32  H   UNL     1     -49.641  32.866  25.874  1.00  0.00     0.065 H 
ATOM     33  C   UNL     1     -46.392  32.473  25.049  1.00  0.00     0.051 A 
ATOM     34  H   UNL     1     -45.648  31.819  24.605  1.00  0.00     0.086 H 
BRANCH  31  35
ATOM     35  N   UNL     1     -48.206  30.850  24.725  1.00  0.00    -0.299 N 
ATOM     36  C   UNL     1     -48.657  29.827  25.542  1.00  0.00     0.025 A 
ATOM     37  C   UNL     1     -48.332  30.415  23.404  1.00  0.00     0.150 A 
ATOM     38  C   UNL     1     -49.041  28.763  24.757  1.00  0.00     0.068 A 
ATOM     39  H   UNL     1     -48.657  29.913  26.619  1.00  0.00     0.083 H 
ATOM     40  C   UNL     1     -48.825  29.111  23.402  1.00  0.00     0.074 A 
ATOM     41  N   UNL     1     -48.066  31.137  22.298  1.00  0.00    -0.218 NA
ATOM     42  C   UNL     1     -48.995  28.498  22.150  1.00  0.00     0.137 A 
ATOM     43  C   UNL     1     -48.302  30.468  21.164  1.00  0.00     0.120 A 
ATOM     44  N   UNL     1     -48.743  29.207  21.033  1.00  0.00    -0.219 NA
ATOM     45  H   UNL     1     -48.112  31.007  20.240  1.00  0.00     0.106 H 
BRANCH  38  46
ATOM     46  C   UNL     1     -49.628  27.440  25.339  1.00  0.00     0.228 A 
ATOM     47  N   UNL     1     -50.829  27.342  25.883  1.00  0.00    -0.218 NA
ATOM     48  O   UNL     1     -48.927  26.256  25.354  1.00  0.00    -0.444 OA
ATOM     49  C   UNL     1     -50.928  26.027  26.259  1.00  0.00     0.066 A 
ATOM     50  C   UNL     1     -49.772  25.366  25.939  1.00  0.00     0.112 A 
ATOM     51  H   UNL     1     -51.814  25.632  26.735  1.00  0.00     0.087 H 
ATOM     52  H   UNL     1     -49.412  24.353  26.044  1.00  0.00     0.106 H 
ENDBRANCH  38  46
BRANCH  42  53
ATOM     53  N   UNL     1     -49.411  27.193  21.977  1.00  0.00    -0.383 N 
ATOM     54  H   UNL     1     -50.292  26.934  22.419  1.00  0.00     0.158 HD
ATOM     55  H   UNL     1     -49.215  26.827  21.056  1.00  0.00     0.158 HD
ENDBRANCH  42  53
ENDBRANCH  31  35
ENDBRANCH   1  26
TORSDOF 8
ENDMDL
MODEL 4
REMARK VINA RESULT:     -10.3      2.377     11.260
REMARK SMILES CNc1ccc2ccc(OCc3cncc(-n4cc(-c5ncco5)c5c(N)ncnc54)c3)cc2n1
REMARK SMILES IDX 11 1 10 4 9 5 3 6 4 7 35 8 5 9 34 11 6 12 33 14 7 15 8 17
REMARK SMILES IDX 2 20 1 22 12 26 13 27 32 28 14 29 16 31 15 33 17 35 18 36
REMARK SMILES IDX 31 37 19 38 25 40 30 41 26 42 29 43 28 44 20 46 21 47 24 48
REMARK SMILES IDX 22 49 23 50 27 53
REMARK H PARENT 11 2 11 3 4 10 5 13 33 16 7 18 8 19 2 21 1 23 1 24 1 25 13 30
REMARK H PARENT 32 32 15 34 18 39 29 45 22 51 23 52 27 54 27 55
REMARK Flexibility Score: inf
ROOT
ATOM      1  C   UNL     1     -46.840  36.643  26.779  1.00  0.00     0.115 C 
ATOM      2  H   UNL     1     -45.986  37.057  26.229  1.00  0.00     0.076 H 
ATOM      3  H   UNL     1     -47.733  36.909  26.200  1.00  0.00     0.076 H 
ENDROOT
BRANCH   1   4
ATOM      4  O   UNL     1     -46.984  37.299  28.043  1.00  0.00    -0.489 OA
BRANCH   4   5
ATOM      5  C   UNL     1     -45.880  37.881  28.607  1.00  0.00     0.122 A 
ATOM      6  C   UNL     1     -42.811  41.486  28.077  1.00  0.00     0.126 A 
ATOM      7  C   UNL     1     -42.164  41.165  29.265  1.00  0.00    -0.019 A 
ATOM      8  N   UNL     1     -43.845  40.752  27.619  1.00  0.00    -0.231 NA
ATOM      9  C   UNL     1     -42.606  40.080  30.015  1.00  0.00    -0.049 A 
ATOM     10  H   UNL     1     -41.314  41.750  29.603  1.00  0.00     0.066 H 
ATOM     11  C   UNL     1     -44.277  39.699  28.338  1.00  0.00     0.076 A 
ATOM     12  C   UNL     1     -43.687  39.325  29.559  1.00  0.00     0.001 A 
ATOM     13  H   UNL     1     -42.102  39.833  30.945  1.00  0.00     0.063 H 
ATOM     14  C   UNL     1     -45.352  38.953  27.878  1.00  0.00     0.007 A 
ATOM     15  C   UNL     1     -44.187  38.228  30.281  1.00  0.00    -0.049 A 
ATOM     16  H   UNL     1     -45.820  39.239  26.939  1.00  0.00     0.069 H 
ATOM     17  C   UNL     1     -45.285  37.509  29.807  1.00  0.00    -0.019 A 
ATOM     18  H   UNL     1     -43.731  37.936  31.224  1.00  0.00     0.063 H 
ATOM     19  H   UNL     1     -45.647  36.675  30.397  1.00  0.00     0.066 H 
BRANCH   6  20
ATOM     20  N   UNL     1     -42.328  42.580  27.338  1.00  0.00    -0.373 N 
ATOM     21  H   UNL     1     -43.116  43.090  26.950  1.00  0.00     0.161 HD
BRANCH  20  22
ATOM     22  C   UNL     1     -41.356  42.231  26.315  1.00  0.00     0.005 C 
ATOM     23  H   UNL     1     -41.841  41.834  25.417  1.00  0.00     0.045 H 
ATOM     24  H   UNL     1     -40.621  41.509  26.688  1.00  0.00     0.045 H 
ATOM     25  H   UNL     1     -40.808  43.133  26.024  1.00  0.00     0.045 H 
ENDBRANCH  20  22
ENDBRANCH   6  20
ENDBRANCH   4   5
ENDBRANCH   1   4
BRANCH   1  26
ATOM     26  C   UNL     1     -46.783  35.135  26.843  1.00  0.00     0.010 A 
ATOM     27  C   UNL     1     -46.175  34.512  27.925  1.00  0.00     0.034 A 
ATOM     28  C   UNL     1     -47.287  34.307  25.829  1.00  0.00    -0.028 A 
ATOM     29  N   UNL     1     -46.063  33.173  28.064  1.00  0.00    -0.262 NA
ATOM     30  H   UNL     1     -45.743  35.087  28.740  1.00  0.00     0.084 H 
ATOM     31  C   UNL     1     -47.225  32.916  25.949  1.00  0.00     0.066 A 
ATOM     32  H   UNL     1     -47.711  34.775  24.947  1.00  0.00     0.065 H 
ATOM     33  C   UNL     1     -46.593  32.408  27.078  1.00  0.00     0.051 A 
ATOM     34  H   UNL     1     -46.502  31.344  27.275  1.00  0.00     0.086 H 
BRANCH  31  35
ATOM     35  N   UNL     1     -47.793  32.047  24.966  1.00  0.00    -0.299 N 
ATOM     36  C   UNL     1     -49.046  31.464  25.048  1.00  0.00     0.025 A 
ATOM     37  C   UNL     1     -47.226  31.648  23.754  1.00  0.00     0.150 A 
ATOM     38  C   UNL     1     -49.259  30.698  23.924  1.00  0.00     0.068 A 
ATOM     39  H   UNL     1     -49.692  31.614  25.902  1.00  0.00     0.083 H 
ATOM     40  C   UNL     1     -48.109  30.789  23.102  1.00  0.00     0.074 A 
ATOM     41  N   UNL     1     -46.039  32.049  23.260  1.00  0.00    -0.218 NA
ATOM     42  C   UNL     1     -47.691  30.264  21.868  1.00  0.00     0.137 A 
ATOM     43  C   UNL     1     -45.762  31.520  22.062  1.00  0.00     0.120 A 
ATOM     44  N   UNL     1     -46.512  30.662  21.353  1.00  0.00    -0.219 NA
ATOM     45  H   UNL     1     -44.819  31.817  21.612  1.00  0.00     0.106 H 
BRANCH  38  46
ATOM     46  C   UNL     1     -50.580  29.912  23.662  1.00  0.00     0.228 A 
ATOM     47  N   UNL     1     -51.011  28.920  24.423  1.00  0.00    -0.218 NA
ATOM     48  O   UNL     1     -51.406  30.175  22.593  1.00  0.00    -0.444 OA
ATOM     49  C   UNL     1     -52.184  28.523  23.833  1.00  0.00     0.066 A 
ATOM     50  C   UNL     1     -52.425  29.284  22.720  1.00  0.00     0.112 A 
ATOM     51  H   UNL     1     -52.785  27.720  24.237  1.00  0.00     0.087 H 
ATOM     52  H   UNL     1     -53.202  29.326  21.971  1.00  0.00     0.106 H 
ENDBRANCH  38  46
BRANCH  42  53
ATOM     53  N   UNL     1     -48.417  29.353  21.128  1.00  0.00    -0.383 N 
ATOM     54  H   UNL     1     -49.287  29.020  21.542  1.00  0.00     0.158 HD
ATOM     55  H   UNL     1     -48.403  29.538  20.135  1.00  0.00     0.158 HD
ENDBRANCH  42  53
ENDBRANCH  31  35
ENDBRANCH   1  26
TORSDOF 8
ENDMDL
MODEL 5
REMARK VINA RESULT:     -10.3      2.259     11.528
REMARK SMILES CNc1ccc2ccc(OCc3cncc(-n4cc(-c5ncco5)c5c(N)ncnc54)c3)cc2n1
REMARK SMILES IDX 11 1 10 4 9 5 3 6 4 7 35 8 5 9 34 11 6 12 33 14 7 15 8 17
REMARK SMILES IDX 2 20 1 22 12 26 13 27 32 28 14 29 16 31 15 33 17 35 18 36
REMARK SMILES IDX 31 37 19 38 25 40 30 41 26 42 29 43 28 44 20 46 21 47 24 48
REMARK SMILES IDX 22 49 23 50 27 53
REMARK H PARENT 11 2 11 3 4 10 5 13 33 16 7 18 8 19 2 21 1 23 1 24 1 25 13 30
REMARK H PARENT 32 32 15 34 18 39 29 45 22 51 23 52 27 54 27 55
REMARK Flexibility Score: inf
ROOT
ATOM      1  C   UNL     1     -45.897  36.107  27.931  1.00  0.00     0.115 C 
ATOM      2  H   UNL     1     -45.423  35.577  28.766  1.00  0.00     0.076 H 
ATOM      3  H   UNL     1     -45.142  36.160  27.136  1.00  0.00     0.076 H 
ENDROOT
BRANCH   1   4
ATOM      4  O   UNL     1     -46.176  37.463  28.294  1.00  0.00    -0.489 OA
BRANCH   4   5
ATOM      5  C   UNL     1     -45.140  38.251  28.721  1.00  0.00     0.122 A 
ATOM      6  C   UNL     1     -42.625  42.139  27.603  1.00  0.00     0.126 A 
ATOM      7  C   UNL     1     -41.890  42.054  28.780  1.00  0.00    -0.019 A 
ATOM      8  N   UNL     1     -43.567  41.225  27.293  1.00  0.00    -0.231 NA
ATOM      9  C   UNL     1     -42.145  41.019  29.674  1.00  0.00    -0.049 A 
ATOM     10  H   UNL     1     -41.117  42.783  28.998  1.00  0.00     0.066 H 
ATOM     11  C   UNL     1     -43.817  40.218  28.152  1.00  0.00     0.076 A 
ATOM     12  C   UNL     1     -43.130  40.077  29.371  1.00  0.00     0.001 A 
ATOM     13  H   UNL     1     -41.574  40.956  30.595  1.00  0.00     0.063 H 
ATOM     14  C   UNL     1     -44.798  39.287  27.845  1.00  0.00     0.007 A 
ATOM     15  C   UNL     1     -43.442  39.020  30.242  1.00  0.00    -0.049 A 
ATOM     16  H   UNL     1     -45.339  39.392  26.908  1.00  0.00     0.069 H 
ATOM     17  C   UNL     1     -44.449  38.110  29.919  1.00  0.00    -0.019 A 
ATOM     18  H   UNL     1     -42.910  38.907  31.185  1.00  0.00     0.063 H 
ATOM     19  H   UNL     1     -44.667  37.312  30.622  1.00  0.00     0.066 H 
BRANCH   6  20
ATOM     20  N   UNL     1     -42.330  43.190  26.717  1.00  0.00    -0.373 N 
ATOM     21  H   UNL     1     -41.629  43.791  27.140  1.00  0.00     0.161 HD
BRANCH  20  22
ATOM     22  C   UNL     1     -43.490  43.945  26.274  1.00  0.00     0.005 C 
ATOM     23  H   UNL     1     -44.422  43.403  26.466  1.00  0.00     0.045 H 
ATOM     24  H   UNL     1     -43.423  44.199  25.209  1.00  0.00     0.045 H 
ATOM     25  H   UNL     1     -43.534  44.887  26.831  1.00  0.00     0.045 H 
ENDBRANCH  20  22
ENDBRANCH   6  20
ENDBRANCH   4   5
ENDBRANCH   1   4
BRANCH   1  26
ATOM     26  C   UNL     1     -47.073  35.337  27.377  1.00  0.00     0.010 A 
ATOM     27  C   UNL     1     -48.349  35.881  27.448  1.00  0.00     0.034 A 
ATOM     28  C   UNL     1     -46.954  34.057  26.817  1.00  0.00    -0.028 A 
ATOM     29  N   UNL     1     -49.462  35.264  26.994  1.00  0.00    -0.262 NA
ATOM     30  H   UNL     1     -48.524  36.859  27.887  1.00  0.00     0.084 H 
ATOM     31  C   UNL     1     -48.073  33.397  26.302  1.00  0.00     0.066 A 
ATOM     32  H   UNL     1     -45.975  33.589  26.808  1.00  0.00     0.065 H 
ATOM     33  C   UNL     1     -49.299  34.042  26.430  1.00  0.00     0.051 A 
ATOM     34  H   UNL     1     -50.227  33.625  26.053  1.00  0.00     0.086 H 
BRANCH  31  35
ATOM     35  N   UNL     1     -47.972  32.124  25.662  1.00  0.00    -0.299 N 
ATOM     36  C   UNL     1     -48.654  30.982  26.047  1.00  0.00     0.025 A 
ATOM     37  C   UNL     1     -47.208  31.794  24.540  1.00  0.00     0.150 A 
ATOM     38  C   UNL     1     -48.315  29.950  25.201  1.00  0.00     0.068 A 
ATOM     39  H   UNL     1     -49.316  30.972  26.902  1.00  0.00     0.083 H 
ATOM     40  C   UNL     1     -47.387  30.442  24.252  1.00  0.00     0.074 A 
ATOM     41  N   UNL     1     -46.448  32.640  23.817  1.00  0.00    -0.218 NA
ATOM     42  C   UNL     1     -46.670  29.925  23.160  1.00  0.00     0.137 A 
ATOM     43  C   UNL     1     -45.846  32.049  22.779  1.00  0.00     0.120 A 
ATOM     44  N   UNL     1     -45.914  30.757  22.419  1.00  0.00    -0.219 NA
ATOM     45  H   UNL     1     -45.227  32.687  22.155  1.00  0.00     0.106 H 
BRANCH  38  46
ATOM     46  C   UNL     1     -48.916  28.516  25.319  1.00  0.00     0.228 A 
ATOM     47  N   UNL     1     -49.483  27.868  24.315  1.00  0.00    -0.218 NA
ATOM     48  O   UNL     1     -48.925  27.805  26.497  1.00  0.00    -0.444 OA
ATOM     49  C   UNL     1     -49.868  26.669  24.856  1.00  0.00     0.066 A 
ATOM     50  C   UNL     1     -49.531  26.629  26.183  1.00  0.00     0.112 A 
ATOM     51  H   UNL     1     -50.363  25.908  24.269  1.00  0.00     0.087 H 
ATOM     52  H   UNL     1     -49.636  25.910  26.981  1.00  0.00     0.106 H 
ENDBRANCH  38  46
BRANCH  42  53
ATOM     53  N   UNL     1     -46.686  28.597  22.782  1.00  0.00    -0.383 N 
ATOM     54  H   UNL     1     -46.282  28.378  21.873  1.00  0.00     0.158 HD
ATOM     55  H   UNL     1     -46.515  27.959  23.547  1.00  0.00     0.158 HD
ENDBRANCH  42  53
ENDBRANCH  31  35
ENDBRANCH   1  26
TORSDOF 8
ENDMDL
MODEL 6
REMARK VINA RESULT:     -10.2      1.827      2.971
REMARK SMILES CNc1ccc2ccc(OCc3cncc(-n4cc(-c5ncco5)c5c(N)ncnc54)c3)cc2n1
REMARK SMILES IDX 11 1 10 4 9 5 3 6 4 7 35 8 5 9 34 11 6 12 33 14 7 15 8 17
REMARK SMILES IDX 2 20 1 22 12 26 13 27 32 28 14 29 16 31 15 33 17 35 18 36
REMARK SMILES IDX 31 37 19 38 25 40 30 41 26 42 29 43 28 44 20 46 21 47 24 48
REMARK SMILES IDX 22 49 23 50 27 53
REMARK H PARENT 11 2 11 3 4 10 5 13 33 16 7 18 8 19 2 21 1 23 1 24 1 25 13 30
REMARK H PARENT 32 32 15 34 18 39 29 45 22 51 23 52 27 54 27 55
REMARK Flexibility Score: inf
ROOT
ATOM      1  C   UNL     1     -46.977  33.073  25.788  1.00  0.00     0.115 C 
ATOM      2  H   UNL     1     -45.883  32.998  25.776  1.00  0.00     0.076 H 
ATOM      3  H   UNL     1     -47.330  32.275  26.452  1.00  0.00     0.076 H 
ENDROOT
BRANCH   1   4
ATOM      4  O   UNL     1     -47.512  32.770  24.495  1.00  0.00    -0.489 OA
BRANCH   4   5
ATOM      5  C   UNL     1     -48.327  31.676  24.366  1.00  0.00     0.122 A 
ATOM      6  C   UNL     1     -48.464  26.958  25.002  1.00  0.00     0.126 A 
ATOM      7  C   UNL     1     -49.803  26.904  24.634  1.00  0.00    -0.019 A 
ATOM      8  N   UNL     1     -47.778  28.119  24.998  1.00  0.00    -0.231 NA
ATOM      9  C   UNL     1     -50.463  28.076  24.277  1.00  0.00    -0.049 A 
ATOM     10  H   UNL     1     -50.330  25.955  24.615  1.00  0.00     0.066 H 
ATOM     11  C   UNL     1     -48.410  29.256  24.651  1.00  0.00     0.076 A 
ATOM     12  C   UNL     1     -49.768  29.286  24.288  1.00  0.00     0.001 A 
ATOM     13  H   UNL     1     -51.511  28.034  23.994  1.00  0.00     0.063 H 
ATOM     14  C   UNL     1     -47.712  30.455  24.664  1.00  0.00     0.007 A 
ATOM     15  C   UNL     1     -50.386  30.502  23.952  1.00  0.00    -0.049 A 
ATOM     16  H   UNL     1     -46.664  30.444  24.952  1.00  0.00     0.069 H 
ATOM     17  C   UNL     1     -49.666  31.697  23.996  1.00  0.00    -0.019 A 
ATOM     18  H   UNL     1     -51.436  30.527  23.668  1.00  0.00     0.063 H 
ATOM     19  H   UNL     1     -50.181  32.617  23.739  1.00  0.00     0.066 H 
BRANCH   6  20
ATOM     20  N   UNL     1     -47.826  25.752  25.342  1.00  0.00    -0.373 N 
ATOM     21  H   UNL     1     -48.528  25.024  25.443  1.00  0.00     0.161 HD
BRANCH  20  22
ATOM     22  C   UNL     1     -46.966  25.836  26.511  1.00  0.00     0.005 C 
ATOM     23  H   UNL     1     -46.444  26.798  26.559  1.00  0.00     0.045 H 
ATOM     24  H   UNL     1     -46.237  25.018  26.534  1.00  0.00     0.045 H 
ATOM     25  H   UNL     1     -47.583  25.748  27.412  1.00  0.00     0.045 H 
ENDBRANCH  20  22
ENDBRANCH   6  20
ENDBRANCH   4   5
ENDBRANCH   1   4
BRANCH   1  26
ATOM     26  C   UNL     1     -47.440  34.383  26.381  1.00  0.00     0.010 A 
ATOM     27  C   UNL     1     -48.760  34.529  26.786  1.00  0.00     0.034 A 
ATOM     28  C   UNL     1     -46.603  35.501  26.514  1.00  0.00    -0.028 A 
ATOM     29  N   UNL     1     -49.270  35.664  27.314  1.00  0.00    -0.262 NA
ATOM     30  H   UNL     1     -49.474  33.715  26.695  1.00  0.00     0.084 H 
ATOM     31  C   UNL     1     -47.079  36.683  27.088  1.00  0.00     0.066 A 
ATOM     32  H   UNL     1     -45.585  35.427  26.148  1.00  0.00     0.065 H 
ATOM     33  C   UNL     1     -48.419  36.710  27.456  1.00  0.00     0.051 A 
ATOM     34  H   UNL     1     -48.887  37.572  27.921  1.00  0.00     0.086 H 
BRANCH  31  35
ATOM     35  N   UNL     1     -46.231  37.813  27.302  1.00  0.00    -0.299 N 
ATOM     36  C   UNL     1     -46.112  38.893  26.443  1.00  0.00     0.025 A 
ATOM     37  C   UNL     1     -45.400  38.058  28.397  1.00  0.00     0.150 A 
ATOM     38  C   UNL     1     -45.213  39.791  26.974  1.00  0.00     0.068 A 
ATOM     39  H   UNL     1     -46.654  38.944  25.510  1.00  0.00     0.083 H 
ATOM     40  C   UNL     1     -44.739  39.269  28.202  1.00  0.00     0.074 A 
ATOM     41  N   UNL     1     -45.277  37.283  29.493  1.00  0.00    -0.218 NA
ATOM     42  C   UNL     1     -43.836  39.668  29.201  1.00  0.00     0.137 A 
ATOM     43  C   UNL     1     -44.422  37.780  30.395  1.00  0.00     0.120 A 
ATOM     44  N   UNL     1     -43.706  38.912  30.308  1.00  0.00    -0.219 NA
ATOM     45  H   UNL     1     -44.291  37.199  31.303  1.00  0.00     0.106 H 
BRANCH  38  46
ATOM     46  C   UNL     1     -44.849  41.143  26.288  1.00  0.00     0.228 A 
ATOM     47  N   UNL     1     -44.888  42.315  26.899  1.00  0.00    -0.218 NA
ATOM     48  O   UNL     1     -44.474  41.233  24.967  1.00  0.00    -0.444 OA
ATOM     49  C   UNL     1     -44.505  43.214  25.938  1.00  0.00     0.066 A 
ATOM     50  C   UNL     1     -44.254  42.558  24.762  1.00  0.00     0.112 A 
ATOM     51  H   UNL     1     -44.432  44.274  26.141  1.00  0.00     0.087 H 
ATOM     52  H   UNL     1     -43.938  42.850  23.772  1.00  0.00     0.106 H 
ENDBRANCH  38  46
BRANCH  42  53
ATOM     53  N   UNL     1     -43.055  40.806  29.130  1.00  0.00    -0.383 N 
ATOM     54  H   UNL     1     -43.503  41.682  29.396  1.00  0.00     0.158 HD
ATOM     55  H   UNL     1     -42.097  40.654  29.413  1.00  0.00     0.158 HD
ENDBRANCH  42  53
ENDBRANCH  31  35
ENDBRANCH   1  26
TORSDOF 8
ENDMDL
MODEL 7
REMARK VINA RESULT:     -10.0      2.222      3.344
REMARK SMILES CNc1ccc2ccc(OCc3cncc(-n4cc(-c5ncco5)c5c(N)ncnc54)c3)cc2n1
REMARK SMILES IDX 11 1 10 4 9 5 3 6 4 7 35 8 5 9 34 11 6 12 33 14 7 15 8 17
REMARK SMILES IDX 2 20 1 22 12 26 13 27 32 28 14 29 16 31 15 33 17 35 18 36
REMARK SMILES IDX 31 37 19 38 25 40 30 41 26 42 29 43 28 44 20 46 21 47 24 48
REMARK SMILES IDX 22 49 23 50 27 53
REMARK H PARENT 11 2 11 3 4 10 5 13 33 16 7 18 8 19 2 21 1 23 1 24 1 25 13 30
REMARK H PARENT 32 32 15 34 18 39 29 45 22 51 23 52 27 54 27 55
REMARK Flexibility Score: inf
ROOT
ATOM      1  C   UNL     1     -47.538  35.042  26.888  1.00  0.00     0.115 C 
ATOM      2  H   UNL     1     -48.532  34.970  27.345  1.00  0.00     0.076 H 
ATOM      3  H   UNL     1     -47.705  35.274  25.829  1.00  0.00     0.076 H 
ENDROOT
BRANCH   1   4
ATOM      4  O   UNL     1     -46.885  33.768  26.910  1.00  0.00    -0.489 OA
BRANCH   4   5
ATOM      5  C   UNL     1     -47.319  32.798  26.047  1.00  0.00     0.122 A 
ATOM      6  C   UNL     1     -46.480  30.881  21.768  1.00  0.00     0.126 A 
ATOM      7  C   UNL     1     -47.462  29.917  21.960  1.00  0.00    -0.019 A 
ATOM      8  N   UNL     1     -46.229  31.826  22.696  1.00  0.00    -0.231 NA
ATOM      9  C   UNL     1     -48.188  29.905  23.146  1.00  0.00    -0.049 A 
ATOM     10  H   UNL     1     -47.669  29.182  21.188  1.00  0.00     0.066 H 
ATOM     11  C   UNL     1     -46.930  31.823  23.846  1.00  0.00     0.076 A 
ATOM     12  C   UNL     1     -47.925  30.867  24.122  1.00  0.00     0.001 A 
ATOM     13  H   UNL     1     -48.953  29.148  23.298  1.00  0.00     0.063 H 
ATOM     14  C   UNL     1     -46.662  32.782  24.812  1.00  0.00     0.007 A 
ATOM     15  C   UNL     1     -48.615  30.895  25.346  1.00  0.00    -0.049 A 
ATOM     16  H   UNL     1     -45.890  33.520  24.611  1.00  0.00     0.069 H 
ATOM     17  C   UNL     1     -48.309  31.858  26.309  1.00  0.00    -0.019 A 
ATOM     18  H   UNL     1     -49.386  30.158  25.560  1.00  0.00     0.063 H 
ATOM     19  H   UNL     1     -48.858  31.841  27.245  1.00  0.00     0.066 H 
BRANCH   6  20
ATOM     20  N   UNL     1     -45.776  30.872  20.550  1.00  0.00    -0.373 N 
ATOM     21  H   UNL     1     -44.780  30.833  20.746  1.00  0.00     0.161 HD
BRANCH  20  22
ATOM     22  C   UNL     1     -46.107  31.970  19.657  1.00  0.00     0.005 C 
ATOM     23  H   UNL     1     -46.695  31.629  18.799  1.00  0.00     0.045 H 
ATOM     24  H   UNL     1     -45.206  32.487  19.306  1.00  0.00     0.045 H 
ATOM     25  H   UNL     1     -46.710  32.702  20.203  1.00  0.00     0.045 H 
ENDBRANCH  20  22
ENDBRANCH   6  20
ENDBRANCH   4   5
ENDBRANCH   1   4
BRANCH   1  26
ATOM     26  C   UNL     1     -46.737  36.182  27.471  1.00  0.00     0.010 A 
ATOM     27  C   UNL     1     -46.001  35.986  28.633  1.00  0.00     0.034 A 
ATOM     28  C   UNL     1     -46.725  37.471  26.918  1.00  0.00    -0.028 A 
ATOM     29  N   UNL     1     -45.267  36.946  29.237  1.00  0.00    -0.262 NA
ATOM     30  H   UNL     1     -45.979  35.021  29.132  1.00  0.00     0.084 H 
ATOM     31  C   UNL     1     -45.951  38.485  27.489  1.00  0.00     0.066 A 
ATOM     32  H   UNL     1     -47.341  37.662  26.046  1.00  0.00     0.065 H 
ATOM     33  C   UNL     1     -45.255  38.168  28.650  1.00  0.00     0.051 A 
ATOM     34  H   UNL     1     -44.615  38.877  29.167  1.00  0.00     0.086 H 
BRANCH  31  35
ATOM     35  N   UNL     1     -45.862  39.787  26.906  1.00  0.00    -0.299 N 
ATOM     36  C   UNL     1     -44.722  40.328  26.336  1.00  0.00     0.025 A 
ATOM     37  C   UNL     1     -46.882  40.732  26.776  1.00  0.00     0.150 A 
ATOM     38  C   UNL     1     -45.010  41.593  25.874  1.00  0.00     0.068 A 
ATOM     39  H   UNL     1     -43.784  39.792  26.313  1.00  0.00     0.083 H 
ATOM     40  C   UNL     1     -46.368  41.872  26.161  1.00  0.00     0.074 A 
ATOM     41  N   UNL     1     -48.169  40.571  27.143  1.00  0.00    -0.218 NA
ATOM     42  C   UNL     1     -47.254  42.945  25.970  1.00  0.00     0.137 A 
ATOM     43  C   UNL     1     -48.929  41.639  26.876  1.00  0.00     0.120 A 
ATOM     44  N   UNL     1     -48.546  42.799  26.320  1.00  0.00    -0.219 NA
ATOM     45  H   UNL     1     -49.979  41.560  27.143  1.00  0.00     0.106 H 
BRANCH  38  46
ATOM     46  C   UNL     1     -43.966  42.495  25.146  1.00  0.00     0.228 A 
ATOM     47  N   UNL     1     -44.150  43.014  23.944  1.00  0.00    -0.218 NA
ATOM     48  O   UNL     1     -42.743  42.811  25.693  1.00  0.00    -0.444 OA
ATOM     49  C   UNL     1     -42.999  43.718  23.696  1.00  0.00     0.066 A 
ATOM     50  C   UNL     1     -42.142  43.594  24.758  1.00  0.00     0.112 A 
ATOM     51  H   UNL     1     -42.851  44.268  22.778  1.00  0.00     0.087 H 
ATOM     52  H   UNL     1     -41.156  43.963  24.996  1.00  0.00     0.106 H 
ENDBRANCH  38  46
BRANCH  42  53
ATOM     53  N   UNL     1     -46.888  44.164  25.435  1.00  0.00    -0.383 N 
ATOM     54  H   UNL     1     -47.281  44.993  25.880  1.00  0.00     0.158 HD
ATOM     55  H   UNL     1     -45.925  44.198  25.130  1.00  0.00     0.158 HD
ENDBRANCH  42  53
ENDBRANCH  31  35
ENDBRANCH   1  26
TORSDOF 8
ENDMDL
