MODEL 1
REMARK VINA RESULT:      -9.2      0.000      0.000
REMARK SMILES Nc1ncnc2c1ccn2[C@@H]1C[C@H](CCc2cccnc2)[C@@H](O)[C@H]1O
REMARK SMILES IDX 11 1 12 2 13 3 22 4 24 5 10 12 2 13 3 14 7 15 4 16 6 17 8 18
REMARK SMILES IDX 5 19 9 21 1 24 25 27 14 29 15 32 16 35 17 36 21 37 18 38
REMARK SMILES IDX 20 40 19 42 23 45
REMARK H PARENT 11 6 12 7 12 8 13 9 22 10 24 11 4 20 8 22 9 23 1 25 1 26 25 28
REMARK H PARENT 14 30 14 31 15 33 15 34 17 39 21 41 18 43 19 44 23 46
REMARK Flexibility Score: inf
ROOT
ATOM      1  C   UNL     1     -45.035  38.075  28.895  1.00  0.00     0.064 C 
ATOM      2  C   UNL     1     -45.017  36.733  28.134  1.00  0.00    -0.024 C 
ATOM      3  C   UNL     1     -46.492  36.325  27.885  1.00  0.00    -0.010 C 
ATOM      4  C   UNL     1     -47.306  37.562  28.289  1.00  0.00     0.085 C 
ATOM      5  C   UNL     1     -46.470  38.200  29.406  1.00  0.00     0.101 C 
ATOM      6  H   UNL     1     -44.323  38.002  29.726  1.00  0.00     0.056 H 
ATOM      7  H   UNL     1     -44.419  36.771  27.218  1.00  0.00     0.029 H 
ATOM      8  H   UNL     1     -44.555  35.965  28.768  1.00  0.00     0.029 H 
ATOM      9  H   UNL     1     -46.738  35.491  28.556  1.00  0.00     0.033 H 
ATOM     10  H   UNL     1     -47.437  38.260  27.455  1.00  0.00     0.063 H 
ATOM     11  H   UNL     1     -46.788  39.225  29.623  1.00  0.00     0.065 H 
ENDROOT
BRANCH   1  12
ATOM     12  N   UNL     1     -44.640  39.240  28.110  1.00  0.00    -0.327 N 
ATOM     13  C   UNL     1     -42.628  42.139  27.784  1.00  0.00     0.136 A 
ATOM     14  N   UNL     1     -41.898  42.101  28.915  1.00  0.00    -0.219 NA
ATOM     15  C   UNL     1     -43.569  41.127  27.549  1.00  0.00     0.061 A 
ATOM     16  C   UNL     1     -42.104  41.081  29.771  1.00  0.00     0.120 A 
ATOM     17  C   UNL     1     -43.677  40.138  28.516  1.00  0.00     0.145 A 
ATOM     18  C   UNL     1     -44.507  40.809  26.531  1.00  0.00    -0.031 A 
ATOM     19  N   UNL     1     -42.972  40.064  29.657  1.00  0.00    -0.218 NA
ATOM     20  H   UNL     1     -41.491  41.086  30.668  1.00  0.00     0.106 H 
ATOM     21  C   UNL     1     -45.159  39.653  26.906  1.00  0.00     0.007 A 
ATOM     22  H   UNL     1     -44.686  41.368  25.622  1.00  0.00     0.065 H 
ATOM     23  H   UNL     1     -45.938  39.102  26.397  1.00  0.00     0.082 H 
BRANCH  13  24
ATOM     24  N   UNL     1     -42.412  43.204  26.921  1.00  0.00    -0.383 N 
ATOM     25  H   UNL     1     -41.890  42.898  26.107  1.00  0.00     0.158 HD
ATOM     26  H   UNL     1     -42.092  44.052  27.367  1.00  0.00     0.158 HD
ENDBRANCH  13  24
ENDBRANCH   1  12
BRANCH   5  27
ATOM     27  O   UNL     1     -46.633  37.436  30.610  1.00  0.00    -0.388 OA
ATOM     28  H   UNL     1     -45.818  37.611  31.125  1.00  0.00     0.211 HD
ENDBRANCH   5  27
BRANCH   3  29
ATOM     29  C   UNL     1     -46.686  35.837  26.437  1.00  0.00    -0.044 C 
ATOM     30  H   UNL     1     -47.748  35.859  26.171  1.00  0.00     0.027 H 
ATOM     31  H   UNL     1     -46.198  36.569  25.778  1.00  0.00     0.027 H 
BRANCH  29  32
ATOM     32  C   UNL     1     -46.058  34.475  26.105  1.00  0.00    -0.026 C 
ATOM     33  H   UNL     1     -45.584  34.077  27.010  1.00  0.00     0.032 H 
ATOM     34  H   UNL     1     -45.244  34.638  25.386  1.00  0.00     0.032 H 
BRANCH  32  35
ATOM     35  C   UNL     1     -46.967  33.441  25.501  1.00  0.00    -0.030 A 
ATOM     36  C   UNL     1     -48.260  33.251  25.999  1.00  0.00    -0.056 A 
ATOM     37  C   UNL     1     -46.558  32.599  24.470  1.00  0.00     0.030 A 
ATOM     38  C   UNL     1     -49.089  32.284  25.436  1.00  0.00    -0.044 A 
ATOM     39  H   UNL     1     -48.632  33.861  26.820  1.00  0.00     0.063 H 
ATOM     40  N   UNL     1     -47.348  31.667  23.892  1.00  0.00    -0.264 NA
ATOM     41  H   UNL     1     -45.554  32.647  24.059  1.00  0.00     0.084 H 
ATOM     42  C   UNL     1     -48.594  31.526  24.391  1.00  0.00     0.027 A 
ATOM     43  H   UNL     1     -50.096  32.128  25.807  1.00  0.00     0.064 H 
ATOM     44  H   UNL     1     -49.201  30.760  23.917  1.00  0.00     0.084 H 
ENDBRANCH  32  35
ENDBRANCH  29  32
ENDBRANCH   3  29
BRANCH   4  45
ATOM     45  O   UNL     1     -48.575  37.205  28.827  1.00  0.00    -0.390 OA
ATOM     46  H   UNL     1     -49.216  37.875  28.522  1.00  0.00     0.211 HD
ENDBRANCH   4  45
TORSDOF 7
ENDMDL
MODEL 2
REMARK VINA RESULT:      -8.2      2.324      8.120
REMARK SMILES Nc1ncnc2c1ccn2[C@@H]1C[C@H](CCc2cccnc2)[C@@H](O)[C@H]1O
REMARK SMILES IDX 11 1 12 2 13 3 22 4 24 5 10 12 2 13 3 14 7 15 4 16 6 17 8 18
REMARK SMILES IDX 5 19 9 21 1 24 25 27 14 29 15 32 16 35 17 36 21 37 18 38
REMARK SMILES IDX 20 40 19 42 23 45
REMARK H PARENT 11 6 12 7 12 8 13 9 22 10 24 11 4 20 8 22 9 23 1 25 1 26 25 28
REMARK H PARENT 14 30 14 31 15 33 15 34 17 39 21 41 18 43 19 44 23 46
REMARK Flexibility Score: inf
ROOT
ATOM      1  C   UNL     1     -46.799  37.520  28.963  1.00  0.00     0.064 C 
ATOM      2  C   UNL     1     -46.651  38.832  28.166  1.00  0.00    -0.024 C 
ATOM      3  C   UNL     1     -45.273  39.440  28.530  1.00  0.00    -0.010 C 
ATOM      4  C   UNL     1     -44.567  38.338  29.333  1.00  0.00     0.085 C 
ATOM      5  C   UNL     1     -45.717  37.608  30.039  1.00  0.00     0.101 C 
ATOM      6  H   UNL     1     -47.801  37.505  29.408  1.00  0.00     0.056 H 
ATOM      7  H   UNL     1     -46.790  38.693  27.089  1.00  0.00     0.029 H 
ATOM      8  H   UNL     1     -47.429  39.538  28.485  1.00  0.00     0.029 H 
ATOM      9  H   UNL     1     -45.441  40.312  29.177  1.00  0.00     0.033 H 
ATOM     10  H   UNL     1     -44.009  37.651  28.688  1.00  0.00     0.063 H 
ATOM     11  H   UNL     1     -45.401  36.642  30.447  1.00  0.00     0.065 H 
ENDROOT
BRANCH   1  12
ATOM     12  N   UNL     1     -46.676  36.296  28.177  1.00  0.00    -0.327 N 
ATOM     13  C   UNL     1     -48.239  33.693  26.351  1.00  0.00     0.136 A 
ATOM     14  N   UNL     1     -49.539  34.036  26.431  1.00  0.00    -0.219 NA
ATOM     15  C   UNL     1     -47.282  34.505  26.974  1.00  0.00     0.061 A 
ATOM     16  C   UNL     1     -49.860  35.157  27.106  1.00  0.00     0.120 A 
ATOM     17  C   UNL     1     -47.754  35.630  27.636  1.00  0.00     0.145 A 
ATOM     18  C   UNL     1     -45.871  34.499  27.130  1.00  0.00    -0.031 A 
ATOM     19  N   UNL     1     -49.038  36.007  27.742  1.00  0.00    -0.218 NA
ATOM     20  H   UNL     1     -50.918  35.401  27.143  1.00  0.00     0.106 H 
ATOM     21  C   UNL     1     -45.525  35.603  27.881  1.00  0.00     0.007 A 
ATOM     22  H   UNL     1     -45.181  33.765  26.734  1.00  0.00     0.065 H 
ATOM     23  H   UNL     1     -44.552  35.939  28.210  1.00  0.00     0.082 H 
BRANCH  13  24
ATOM     24  N   UNL     1     -47.929  32.528  25.662  1.00  0.00    -0.383 N 
ATOM     25  H   UNL     1     -47.190  32.702  24.991  1.00  0.00     0.158 HD
ATOM     26  H   UNL     1     -48.728  32.010  25.326  1.00  0.00     0.158 HD
ENDBRANCH  13  24
ENDBRANCH   1  12
BRANCH   5  27
ATOM     27  O   UNL     1     -46.178  38.408  31.138  1.00  0.00    -0.388 OA
ATOM     28  H   UNL     1     -47.061  38.043  31.354  1.00  0.00     0.211 HD
ENDBRANCH   5  27
BRANCH   3  29
ATOM     29  C   UNL     1     -44.538  39.926  27.267  1.00  0.00    -0.044 C 
ATOM     30  H   UNL     1     -44.090  39.076  26.741  1.00  0.00     0.027 H 
ATOM     31  H   UNL     1     -45.298  40.332  26.585  1.00  0.00     0.027 H 
BRANCH  29  32
ATOM     32  C   UNL     1     -43.512  41.048  27.485  1.00  0.00    -0.026 C 
ATOM     33  H   UNL     1     -42.566  40.600  27.812  1.00  0.00     0.032 H 
ATOM     34  H   UNL     1     -43.855  41.670  28.323  1.00  0.00     0.032 H 
BRANCH  32  35
ATOM     35  C   UNL     1     -43.271  41.977  26.328  1.00  0.00    -0.030 A 
ATOM     36  C   UNL     1     -44.178  42.040  25.265  1.00  0.00    -0.056 A 
ATOM     37  C   UNL     1     -42.129  42.766  26.230  1.00  0.00     0.030 A 
ATOM     38  C   UNL     1     -43.939  42.898  24.194  1.00  0.00    -0.044 A 
ATOM     39  H   UNL     1     -45.079  41.430  25.268  1.00  0.00     0.063 H 
ATOM     40  N   UNL     1     -41.881  43.623  25.214  1.00  0.00    -0.264 NA
ATOM     41  H   UNL     1     -41.351  42.741  26.988  1.00  0.00     0.084 H 
ATOM     42  C   UNL     1     -42.789  43.666  24.216  1.00  0.00     0.027 A 
ATOM     43  H   UNL     1     -44.634  42.964  23.364  1.00  0.00     0.064 H 
ATOM     44  H   UNL     1     -42.556  44.352  23.406  1.00  0.00     0.084 H 
ENDBRANCH  32  35
ENDBRANCH  29  32
ENDBRANCH   3  29
BRANCH   4  45
ATOM     45  O   UNL     1     -43.704  38.881  30.327  1.00  0.00    -0.390 OA
ATOM     46  H   UNL     1     -43.119  39.522  29.881  1.00  0.00     0.211 HD
ENDBRANCH   4  45
TORSDOF 7
ENDMDL
MODEL 3
REMARK VINA RESULT:      -8.1      1.537      8.495
REMARK SMILES Nc1ncnc2c1ccn2[C@@H]1C[C@H](CCc2cccnc2)[C@@H](O)[C@H]1O
REMARK SMILES IDX 11 1 12 2 13 3 22 4 24 5 10 12 2 13 3 14 7 15 4 16 6 17 8 18
REMARK SMILES IDX 5 19 9 21 1 24 25 27 14 29 15 32 16 35 17 36 21 37 18 38
REMARK SMILES IDX 20 40 19 42 23 45
REMARK H PARENT 11 6 12 7 12 8 13 9 22 10 24 11 4 20 8 22 9 23 1 25 1 26 25 28
REMARK H PARENT 14 30 14 31 15 33 15 34 17 39 21 41 18 43 19 44 23 46
REMARK Flexibility Score: inf
ROOT
ATOM      1  C   UNL     1     -47.929  36.051  26.971  1.00  0.00     0.064 C 
ATOM      2  C   UNL     1     -47.120  37.348  26.762  1.00  0.00    -0.024 C 
ATOM      3  C   UNL     1     -46.439  37.688  28.112  1.00  0.00    -0.010 C 
ATOM      4  C   UNL     1     -46.675  36.447  28.986  1.00  0.00     0.085 C 
ATOM      5  C   UNL     1     -48.021  35.903  28.489  1.00  0.00     0.101 C 
ATOM      6  H   UNL     1     -48.920  36.195  26.525  1.00  0.00     0.056 H 
ATOM      7  H   UNL     1     -46.414  37.279  25.928  1.00  0.00     0.029 H 
ATOM      8  H   UNL     1     -47.808  38.166  26.513  1.00  0.00     0.029 H 
ATOM      9  H   UNL     1     -46.959  38.549  28.554  1.00  0.00     0.033 H 
ATOM     10  H   UNL     1     -45.885  35.700  28.862  1.00  0.00     0.063 H 
ATOM     11  H   UNL     1     -48.204  34.882  28.837  1.00  0.00     0.065 H 
ENDROOT
BRANCH   1  12
ATOM     12  N   UNL     1     -47.363  34.858  26.348  1.00  0.00    -0.327 N 
ATOM     13  C   UNL     1     -47.840  31.590  25.063  1.00  0.00     0.136 A 
ATOM     14  N   UNL     1     -49.164  31.414  25.229  1.00  0.00    -0.219 NA
ATOM     15  C   UNL     1     -47.258  32.800  25.468  1.00  0.00     0.061 A 
ATOM     16  C   UNL     1     -49.875  32.420  25.777  1.00  0.00     0.120 A 
ATOM     17  C   UNL     1     -48.110  33.748  26.018  1.00  0.00     0.145 A 
ATOM     18  C   UNL     1     -45.956  33.364  25.477  1.00  0.00    -0.031 A 
ATOM     19  N   UNL     1     -49.433  33.613  26.204  1.00  0.00    -0.218 NA
ATOM     20  H   UNL     1     -50.940  32.239  25.889  1.00  0.00     0.106 H 
ATOM     21  C   UNL     1     -46.046  34.624  26.032  1.00  0.00     0.007 A 
ATOM     22  H   UNL     1     -45.048  32.898  25.114  1.00  0.00     0.065 H 
ATOM     23  H   UNL     1     -45.273  35.358  26.210  1.00  0.00     0.082 H 
BRANCH  13  24
ATOM     24  N   UNL     1     -47.122  30.539  24.510  1.00  0.00    -0.383 N 
ATOM     25  H   UNL     1     -46.157  30.569  24.822  1.00  0.00     0.158 HD
ATOM     26  H   UNL     1     -47.269  30.401  23.520  1.00  0.00     0.158 HD
ENDBRANCH  13  24
ENDBRANCH   1  12
BRANCH   5  27
ATOM     27  O   UNL     1     -49.079  36.727  29.001  1.00  0.00    -0.388 OA
ATOM     28  H   UNL     1     -49.390  36.258  29.803  1.00  0.00     0.211 HD
ENDBRANCH   5  27
BRANCH   3  29
ATOM     29  C   UNL     1     -44.968  38.087  27.897  1.00  0.00    -0.044 C 
ATOM     30  H   UNL     1     -44.321  37.206  27.977  1.00  0.00     0.027 H 
ATOM     31  H   UNL     1     -44.873  38.434  26.859  1.00  0.00     0.027 H 
BRANCH  29  32
ATOM     32  C   UNL     1     -44.454  39.234  28.781  1.00  0.00    -0.026 C 
ATOM     33  H   UNL     1     -43.748  38.823  29.514  1.00  0.00     0.032 H 
ATOM     34  H   UNL     1     -45.299  39.624  29.364  1.00  0.00     0.032 H 
BRANCH  32  35
ATOM     35  C   UNL     1     -43.838  40.409  28.073  1.00  0.00    -0.030 A 
ATOM     36  C   UNL     1     -44.287  40.792  26.806  1.00  0.00    -0.056 A 
ATOM     37  C   UNL     1     -42.774  41.128  28.609  1.00  0.00     0.030 A 
ATOM     38  C   UNL     1     -43.703  41.877  26.157  1.00  0.00    -0.044 A 
ATOM     39  H   UNL     1     -45.100  40.255  26.320  1.00  0.00     0.063 H 
ATOM     40  N   UNL     1     -42.201  42.197  28.012  1.00  0.00    -0.264 NA
ATOM     41  H   UNL     1     -42.332  40.866  29.567  1.00  0.00     0.084 H 
ATOM     42  C   UNL     1     -42.675  42.545  26.796  1.00  0.00     0.027 A 
ATOM     43  H   UNL     1     -44.043  42.190  25.176  1.00  0.00     0.064 H 
ATOM     44  H   UNL     1     -42.186  43.398  26.334  1.00  0.00     0.084 H 
ENDBRANCH  32  35
ENDBRANCH  29  32
ENDBRANCH   3  29
BRANCH   4  45
ATOM     45  O   UNL     1     -46.810  36.789  30.361  1.00  0.00    -0.390 OA
ATOM     46  H   UNL     1     -46.755  35.958  30.871  1.00  0.00     0.211 HD
ENDBRANCH   4  45
TORSDOF 7
ENDMDL
MODEL 4
REMARK VINA RESULT:      -8.0      4.750      7.763
REMARK SMILES Nc1ncnc2c1ccn2[C@@H]1C[C@H](CCc2cccnc2)[C@@H](O)[C@H]1O
REMARK SMILES IDX 11 1 12 2 13 3 22 4 24 5 10 12 2 13 3 14 7 15 4 16 6 17 8 18
REMARK SMILES IDX 5 19 9 21 1 24 25 27 14 29 15 32 16 35 17 36 21 37 18 38
REMARK SMILES IDX 20 40 19 42 23 45
REMARK H PARENT 11 6 12 7 12 8 13 9 22 10 24 11 4 20 8 22 9 23 1 25 1 26 25 28
REMARK H PARENT 14 30 14 31 15 33 15 34 17 39 21 41 18 43 19 44 23 46
REMARK Flexibility Score: inf
ROOT
ATOM      1  C   UNL     1     -49.048  31.942  25.602  1.00  0.00     0.064 C 
ATOM      2  C   UNL     1     -48.479  30.509  25.648  1.00  0.00    -0.024 C 
ATOM      3  C   UNL     1     -48.453  29.975  24.194  1.00  0.00    -0.010 C 
ATOM      4  C   UNL     1     -48.775  31.202  23.328  1.00  0.00     0.085 C 
ATOM      5  C   UNL     1     -49.695  32.046  24.221  1.00  0.00     0.101 C 
ATOM      6  H   UNL     1     -49.796  32.035  26.398  1.00  0.00     0.056 H 
ATOM      7  H   UNL     1     -47.504  30.454  26.145  1.00  0.00     0.029 H 
ATOM      8  H   UNL     1     -49.155  29.870  26.233  1.00  0.00     0.029 H 
ATOM      9  H   UNL     1     -49.254  29.232  24.084  1.00  0.00     0.033 H 
ATOM     10  H   UNL     1     -47.874  31.764  23.058  1.00  0.00     0.063 H 
ATOM     11  H   UNL     1     -49.805  33.068  23.846  1.00  0.00     0.065 H 
ENDROOT
BRANCH   1  12
ATOM     12  N   UNL     1     -48.074  33.006  25.820  1.00  0.00    -0.327 N 
ATOM     13  C   UNL     1     -47.360  36.272  26.996  1.00  0.00     0.136 A 
ATOM     14  N   UNL     1     -48.560  36.671  27.459  1.00  0.00    -0.219 NA
ATOM     15  C   UNL     1     -47.240  34.994  26.434  1.00  0.00     0.061 A 
ATOM     16  C   UNL     1     -49.595  35.814  27.363  1.00  0.00     0.120 A 
ATOM     17  C   UNL     1     -48.389  34.216  26.400  1.00  0.00     0.145 A 
ATOM     18  C   UNL     1     -46.203  34.219  25.849  1.00  0.00    -0.031 A 
ATOM     19  N   UNL     1     -49.603  34.575  26.846  1.00  0.00    -0.218 NA
ATOM     20  H   UNL     1     -50.544  36.173  27.752  1.00  0.00     0.106 H 
ATOM     21  C   UNL     1     -46.744  33.008  25.470  1.00  0.00     0.007 A 
ATOM     22  H   UNL     1     -45.171  34.517  25.719  1.00  0.00     0.065 H 
ATOM     23  H   UNL     1     -46.274  32.160  24.993  1.00  0.00     0.082 H 
BRANCH  13  24
ATOM     24  N   UNL     1     -46.309  37.173  27.091  1.00  0.00    -0.383 N 
ATOM     25  H   UNL     1     -46.376  37.871  26.358  1.00  0.00     0.158 HD
ATOM     26  H   UNL     1     -45.401  36.751  27.227  1.00  0.00     0.158 HD
ENDBRANCH  13  24
ENDBRANCH   1  12
BRANCH   5  27
ATOM     27  O   UNL     1     -51.002  31.453  24.242  1.00  0.00    -0.388 OA
ATOM     28  H   UNL     1     -51.255  31.381  23.298  1.00  0.00     0.211 HD
ENDBRANCH   5  27
BRANCH   3  29
ATOM     29  C   UNL     1     -47.116  29.273  23.892  1.00  0.00    -0.044 C 
ATOM     30  H   UNL     1     -46.588  29.795  23.086  1.00  0.00     0.027 H 
ATOM     31  H   UNL     1     -46.482  29.383  24.783  1.00  0.00     0.027 H 
BRANCH  29  32
ATOM     32  C   UNL     1     -47.205  27.765  23.612  1.00  0.00    -0.026 C 
ATOM     33  H   UNL     1     -46.262  27.437  23.156  1.00  0.00     0.032 H 
ATOM     34  H   UNL     1     -47.980  27.602  22.851  1.00  0.00     0.032 H 
BRANCH  32  35
ATOM     35  C   UNL     1     -47.549  26.881  24.777  1.00  0.00    -0.030 A 
ATOM     36  C   UNL     1     -46.541  26.315  25.564  1.00  0.00    -0.056 A 
ATOM     37  C   UNL     1     -48.861  26.542  25.095  1.00  0.00     0.030 A 
ATOM     38  C   UNL     1     -46.873  25.490  26.636  1.00  0.00    -0.044 A 
ATOM     39  H   UNL     1     -45.493  26.520  25.354  1.00  0.00     0.063 H 
ATOM     40  N   UNL     1     -49.214  25.761  26.140  1.00  0.00    -0.264 NA
ATOM     41  H   UNL     1     -49.701  26.899  24.505  1.00  0.00     0.084 H 
ATOM     42  C   UNL     1     -48.211  25.248  26.885  1.00  0.00     0.027 A 
ATOM     43  H   UNL     1     -46.104  25.047  27.259  1.00  0.00     0.064 H 
ATOM     44  H   UNL     1     -48.523  24.613  27.709  1.00  0.00     0.084 H 
ENDBRANCH  32  35
ENDBRANCH  29  32
ENDBRANCH   3  29
BRANCH   4  45
ATOM     45  O   UNL     1     -49.496  30.845  22.154  1.00  0.00    -0.390 OA
ATOM     46  H   UNL     1     -49.162  31.408  21.429  1.00  0.00     0.211 HD
ENDBRANCH   4  45
TORSDOF 7
ENDMDL
MODEL 5
REMARK VINA RESULT:      -7.9      2.348      7.671
REMARK SMILES Nc1ncnc2c1ccn2[C@@H]1C[C@H](CCc2cccnc2)[C@@H](O)[C@H]1O
REMARK SMILES IDX 11 1 12 2 13 3 22 4 24 5 10 12 2 13 3 14 7 15 4 16 6 17 8 18
REMARK SMILES IDX 5 19 9 21 1 24 25 27 14 29 15 32 16 35 17 36 21 37 18 38
REMARK SMILES IDX 20 40 19 42 23 45
REMARK H PARENT 11 6 12 7 12 8 13 9 22 10 24 11 4 20 8 22 9 23 1 25 1 26 25 28
REMARK H PARENT 14 30 14 31 15 33 15 34 17 39 21 41 18 43 19 44 23 46
REMARK Flexibility Score: inf
ROOT
ATOM      1  C   UNL     1     -48.105  38.015  27.350  1.00  0.00     0.064 C 
ATOM      2  C   UNL     1     -47.408  39.008  26.396  1.00  0.00    -0.024 C 
ATOM      3  C   UNL     1     -47.324  40.370  27.130  1.00  0.00    -0.010 C 
ATOM      4  C   UNL     1     -47.750  40.057  28.572  1.00  0.00     0.085 C 
ATOM      5  C   UNL     1     -48.749  38.903  28.414  1.00  0.00     0.101 C 
ATOM      6  H   UNL     1     -48.863  37.470  26.776  1.00  0.00     0.056 H 
ATOM      7  H   UNL     1     -46.436  38.647  26.044  1.00  0.00     0.029 H 
ATOM      8  H   UNL     1     -48.027  39.142  25.500  1.00  0.00     0.029 H 
ATOM      9  H   UNL     1     -48.054  41.053  26.675  1.00  0.00     0.033 H 
ATOM     10  H   UNL     1     -46.902  39.754  29.196  1.00  0.00     0.063 H 
ATOM     11  H   UNL     1     -48.949  38.400  29.366  1.00  0.00     0.065 H 
ENDROOT
BRANCH   1  12
ATOM     12  N   UNL     1     -47.233  37.008  27.946  1.00  0.00    -0.327 N 
ATOM     13  C   UNL     1     -46.128  33.644  28.077  1.00  0.00     0.136 A 
ATOM     14  N   UNL     1     -46.862  33.070  27.105  1.00  0.00    -0.219 NA
ATOM     15  C   UNL     1     -46.292  35.011  28.335  1.00  0.00     0.061 A 
ATOM     16  C   UNL     1     -47.723  33.846  26.417  1.00  0.00     0.120 A 
ATOM     17  C   UNL     1     -47.215  35.689  27.550  1.00  0.00     0.145 A 
ATOM     18  C   UNL     1     -45.743  35.962  29.235  1.00  0.00    -0.031 A 
ATOM     19  N   UNL     1     -47.968  35.156  26.574  1.00  0.00    -0.218 NA
ATOM     20  H   UNL     1     -48.293  33.346  25.639  1.00  0.00     0.106 H 
ATOM     21  C   UNL     1     -46.346  37.177  28.984  1.00  0.00     0.007 A 
ATOM     22  H   UNL     1     -44.988  35.777  29.988  1.00  0.00     0.065 H 
ATOM     23  H   UNL     1     -46.196  38.136  29.460  1.00  0.00     0.082 H 
BRANCH  13  24
ATOM     24  N   UNL     1     -45.256  32.827  28.783  1.00  0.00    -0.383 N 
ATOM     25  H   UNL     1     -45.769  32.249  29.440  1.00  0.00     0.158 HD
ATOM     26  H   UNL     1     -44.436  33.293  29.142  1.00  0.00     0.158 HD
ENDBRANCH  13  24
ENDBRANCH   1  12
BRANCH   5  27
ATOM     27  O   UNL     1     -49.997  39.424  27.933  1.00  0.00    -0.388 OA
ATOM     28  H   UNL     1     -50.658  39.123  28.590  1.00  0.00     0.211 HD
ENDBRANCH   5  27
BRANCH   3  29
ATOM     29  C   UNL     1     -45.927  40.995  26.964  1.00  0.00    -0.044 C 
ATOM     30  H   UNL     1     -45.865  41.535  26.013  1.00  0.00     0.027 H 
ATOM     31  H   UNL     1     -45.817  41.759  27.747  1.00  0.00     0.027 H 
BRANCH  29  32
ATOM     32  C   UNL     1     -44.742  40.032  27.135  1.00  0.00    -0.026 C 
ATOM     33  H   UNL     1     -44.306  39.835  26.148  1.00  0.00     0.032 H 
ATOM     34  H   UNL     1     -45.131  39.069  27.490  1.00  0.00     0.032 H 
BRANCH  32  35
ATOM     35  C   UNL     1     -43.667  40.448  28.100  1.00  0.00    -0.030 A 
ATOM     36  C   UNL     1     -42.803  41.503  27.793  1.00  0.00    -0.056 A 
ATOM     37  C   UNL     1     -43.447  39.782  29.302  1.00  0.00     0.030 A 
ATOM     38  C   UNL     1     -41.806  41.873  28.692  1.00  0.00    -0.044 A 
ATOM     39  H   UNL     1     -42.907  42.050  26.858  1.00  0.00     0.063 H 
ATOM     40  N   UNL     1     -42.501  40.131  30.203  1.00  0.00    -0.264 NA
ATOM     41  H   UNL     1     -44.041  38.920  29.595  1.00  0.00     0.084 H 
ATOM     42  C   UNL     1     -41.697  41.166  29.875  1.00  0.00     0.027 A 
ATOM     43  H   UNL     1     -41.131  42.692  28.472  1.00  0.00     0.064 H 
ATOM     44  H   UNL     1     -40.938  41.414  30.611  1.00  0.00     0.084 H 
ENDBRANCH  32  35
ENDBRANCH  29  32
ENDBRANCH   3  29
BRANCH   4  45
ATOM     45  O   UNL     1     -48.427  41.156  29.172  1.00  0.00    -0.390 OA
ATOM     46  H   UNL     1     -47.830  41.927  29.116  1.00  0.00     0.211 HD
ENDBRANCH   4  45
TORSDOF 7
ENDMDL
MODEL 6
REMARK VINA RESULT:      -7.8      4.906     10.968
REMARK SMILES Nc1ncnc2c1ccn2[C@@H]1C[C@H](CCc2cccnc2)[C@@H](O)[C@H]1O
REMARK SMILES IDX 11 1 12 2 13 3 22 4 24 5 10 12 2 13 3 14 7 15 4 16 6 17 8 18
REMARK SMILES IDX 5 19 9 21 1 24 25 27 14 29 15 32 16 35 17 36 21 37 18 38
REMARK SMILES IDX 20 40 19 42 23 45
REMARK H PARENT 11 6 12 7 12 8 13 9 22 10 24 11 4 20 8 22 9 23 1 25 1 26 25 28
REMARK H PARENT 14 30 14 31 15 33 15 34 17 39 21 41 18 43 19 44 23 46
REMARK Flexibility Score: inf
ROOT
ATOM      1  C   UNL     1     -49.012  29.671  23.557  1.00  0.00     0.064 C 
ATOM      2  C   UNL     1     -47.703  30.485  23.494  1.00  0.00    -0.024 C 
ATOM      3  C   UNL     1     -47.944  31.804  24.271  1.00  0.00    -0.010 C 
ATOM      4  C   UNL     1     -49.298  31.600  24.965  1.00  0.00     0.085 C 
ATOM      5  C   UNL     1     -50.066  30.683  24.004  1.00  0.00     0.101 C 
ATOM      6  H   UNL     1     -49.225  29.294  22.549  1.00  0.00     0.056 H 
ATOM      7  H   UNL     1     -46.835  29.924  23.856  1.00  0.00     0.029 H 
ATOM      8  H   UNL     1     -47.487  30.741  22.448  1.00  0.00     0.029 H 
ATOM      9  H   UNL     1     -48.027  32.623  23.543  1.00  0.00     0.033 H 
ATOM     10  H   UNL     1     -49.190  31.130  25.948  1.00  0.00     0.063 H 
ATOM     11  H   UNL     1     -50.949  30.242  24.475  1.00  0.00     0.065 H 
ENDROOT
BRANCH   1  12
ATOM     12  N   UNL     1     -48.978  28.506  24.437  1.00  0.00    -0.327 N 
ATOM     13  C   UNL     1     -47.211  25.707  25.700  1.00  0.00     0.136 A 
ATOM     14  N   UNL     1     -46.029  25.812  25.064  1.00  0.00    -0.219 NA
ATOM     15  C   UNL     1     -48.205  26.663  25.449  1.00  0.00     0.061 A 
ATOM     16  C   UNL     1     -45.854  26.843  24.213  1.00  0.00     0.120 A 
ATOM     17  C   UNL     1     -47.889  27.671  24.549  1.00  0.00     0.145 A 
ATOM     18  C   UNL     1     -49.534  26.905  25.885  1.00  0.00    -0.031 A 
ATOM     19  N   UNL     1     -46.726  27.811  23.892  1.00  0.00    -0.218 NA
ATOM     20  H   UNL     1     -44.885  26.894  23.725  1.00  0.00     0.106 H 
ATOM     21  C   UNL     1     -49.990  28.036  25.240  1.00  0.00     0.007 A 
ATOM     22  H   UNL     1     -50.097  26.314  26.596  1.00  0.00     0.065 H 
ATOM     23  H   UNL     1     -50.948  28.532  25.309  1.00  0.00     0.082 H 
BRANCH  13  24
ATOM     24  N   UNL     1     -47.377  24.632  26.561  1.00  0.00    -0.383 N 
ATOM     25  H   UNL     1     -46.503  24.129  26.671  1.00  0.00     0.158 HD
ATOM     26  H   UNL     1     -48.198  24.071  26.384  1.00  0.00     0.158 HD
ENDBRANCH  13  24
ENDBRANCH   1  12
BRANCH   5  27
ATOM     27  O   UNL     1     -50.517  31.453  22.880  1.00  0.00    -0.388 OA
ATOM     28  H   UNL     1     -51.027  30.818  22.336  1.00  0.00     0.211 HD
ENDBRANCH   5  27
BRANCH   3  29
ATOM     29  C   UNL     1     -46.755  32.118  25.198  1.00  0.00    -0.044 C 
ATOM     30  H   UNL     1     -46.970  31.779  26.217  1.00  0.00     0.027 H 
ATOM     31  H   UNL     1     -45.905  31.510  24.855  1.00  0.00     0.027 H 
BRANCH  29  32
ATOM     32  C   UNL     1     -46.270  33.576  25.188  1.00  0.00    -0.026 C 
ATOM     33  H   UNL     1     -46.651  34.066  24.283  1.00  0.00     0.032 H 
ATOM     34  H   UNL     1     -45.176  33.574  25.090  1.00  0.00     0.032 H 
BRANCH  32  35
ATOM     35  C   UNL     1     -46.595  34.404  26.399  1.00  0.00    -0.030 A 
ATOM     36  C   UNL     1     -47.189  35.663  26.263  1.00  0.00    -0.056 A 
ATOM     37  C   UNL     1     -46.278  33.993  27.691  1.00  0.00     0.030 A 
ATOM     38  C   UNL     1     -47.477  36.424  27.393  1.00  0.00    -0.044 A 
ATOM     39  H   UNL     1     -47.440  36.053  25.278  1.00  0.00     0.063 H 
ATOM     40  N   UNL     1     -46.564  34.701  28.806  1.00  0.00    -0.264 NA
ATOM     41  H   UNL     1     -45.770  33.052  27.882  1.00  0.00     0.084 H 
ATOM     42  C   UNL     1     -47.153  35.904  28.632  1.00  0.00     0.027 A 
ATOM     43  H   UNL     1     -47.943  37.400  27.305  1.00  0.00     0.064 H 
ATOM     44  H   UNL     1     -47.357  36.457  29.544  1.00  0.00     0.084 H 
ENDBRANCH  32  35
ENDBRANCH  29  32
ENDBRANCH   3  29
BRANCH   4  45
ATOM     45  O   UNL     1     -50.017  32.823  25.087  1.00  0.00    -0.390 OA
ATOM     46  H   UNL     1     -49.399  33.485  25.454  1.00  0.00     0.211 HD
ENDBRANCH   4  45
TORSDOF 7
ENDMDL
MODEL 7
REMARK VINA RESULT:      -7.8      5.873     11.863
REMARK SMILES Nc1ncnc2c1ccn2[C@@H]1C[C@H](CCc2cccnc2)[C@@H](O)[C@H]1O
REMARK SMILES IDX 11 1 12 2 13 3 22 4 24 5 10 12 2 13 3 14 7 15 4 16 6 17 8 18
REMARK SMILES IDX 5 19 9 21 1 24 25 27 14 29 15 32 16 35 17 36 21 37 18 38
REMARK SMILES IDX 20 40 19 42 23 45
REMARK H PARENT 11 6 12 7 12 8 13 9 22 10 24 11 4 20 8 22 9 23 1 25 1 26 25 28
REMARK H PARENT 14 30 14 31 15 33 15 34 17 39 21 41 18 43 19 44 23 46
REMARK Flexibility Score: inf
ROOT
ATOM      1  C   UNL     1     -48.068  28.370  22.787  1.00  0.00     0.064 C 
ATOM      2  C   UNL     1     -46.816  29.241  23.019  1.00  0.00    -0.024 C 
ATOM      3  C   UNL     1     -47.257  30.722  22.903  1.00  0.00    -0.010 C 
ATOM      4  C   UNL     1     -48.791  30.664  22.854  1.00  0.00     0.085 C 
ATOM      5  C   UNL     1     -49.082  29.327  22.161  1.00  0.00     0.101 C 
ATOM      6  H   UNL     1     -47.798  27.567  22.091  1.00  0.00     0.056 H 
ATOM      7  H   UNL     1     -46.309  29.014  23.963  1.00  0.00     0.029 H 
ATOM      8  H   UNL     1     -46.085  29.041  22.225  1.00  0.00     0.029 H 
ATOM      9  H   UNL     1     -46.877  31.122  21.953  1.00  0.00     0.033 H 
ATOM     10  H   UNL     1     -49.236  30.688  23.855  1.00  0.00     0.063 H 
ATOM     11  H   UNL     1     -50.127  29.023  22.279  1.00  0.00     0.065 H 
ENDROOT
BRANCH   1  12
ATOM     12  N   UNL     1     -48.605  27.722  23.979  1.00  0.00    -0.327 N 
ATOM     13  C   UNL     1     -51.414  26.523  25.777  1.00  0.00     0.136 A 
ATOM     14  N   UNL     1     -52.425  26.795  24.930  1.00  0.00    -0.219 NA
ATOM     15  C   UNL     1     -50.106  26.865  25.406  1.00  0.00     0.061 A 
ATOM     16  C   UNL     1     -52.128  27.382  23.754  1.00  0.00     0.120 A 
ATOM     17  C   UNL     1     -49.946  27.466  24.165  1.00  0.00     0.145 A 
ATOM     18  C   UNL     1     -48.813  26.764  25.982  1.00  0.00    -0.031 A 
ATOM     19  N   UNL     1     -50.925  27.757  23.293  1.00  0.00    -0.218 NA
ATOM     20  H   UNL     1     -52.972  27.580  23.098  1.00  0.00     0.106 H 
ATOM     21  C   UNL     1     -47.911  27.307  25.091  1.00  0.00     0.007 A 
ATOM     22  H   UNL     1     -48.568  26.338  26.947  1.00  0.00     0.065 H 
ATOM     23  H   UNL     1     -46.838  27.414  25.171  1.00  0.00     0.082 H 
BRANCH  13  24
ATOM     24  N   UNL     1     -51.740  25.930  26.988  1.00  0.00    -0.383 N 
ATOM     25  H   UNL     1     -51.421  24.967  27.007  1.00  0.00     0.158 HD
ATOM     26  H   UNL     1     -52.686  26.096  27.299  1.00  0.00     0.158 HD
ENDBRANCH  13  24
ENDBRANCH   1  12
BRANCH   5  27
ATOM     27  O   UNL     1     -48.831  29.462  20.754  1.00  0.00    -0.388 OA
ATOM     28  H   UNL     1     -49.655  29.850  20.394  1.00  0.00     0.211 HD
ENDBRANCH   5  27
BRANCH   3  29
ATOM     29  C   UNL     1     -46.653  31.563  24.043  1.00  0.00    -0.044 C 
ATOM     30  H   UNL     1     -45.679  31.158  24.337  1.00  0.00     0.027 H 
ATOM     31  H   UNL     1     -46.449  32.564  23.637  1.00  0.00     0.027 H 
BRANCH  29  32
ATOM     32  C   UNL     1     -47.558  31.773  25.267  1.00  0.00    -0.026 C 
ATOM     33  H   UNL     1     -47.230  31.098  26.067  1.00  0.00     0.032 H 
ATOM     34  H   UNL     1     -48.575  31.452  25.001  1.00  0.00     0.032 H 
BRANCH  32  35
ATOM     35  C   UNL     1     -47.671  33.178  25.790  1.00  0.00    -0.030 A 
ATOM     36  C   UNL     1     -46.595  34.065  25.687  1.00  0.00    -0.056 A 
ATOM     37  C   UNL     1     -48.811  33.642  26.441  1.00  0.00     0.030 A 
ATOM     38  C   UNL     1     -46.709  35.361  26.183  1.00  0.00    -0.044 A 
ATOM     39  H   UNL     1     -45.666  33.756  25.211  1.00  0.00     0.063 H 
ATOM     40  N   UNL     1     -48.957  34.900  26.914  1.00  0.00    -0.264 NA
ATOM     41  H   UNL     1     -49.673  33.003  26.607  1.00  0.00     0.084 H 
ATOM     42  C   UNL     1     -47.901  35.730  26.780  1.00  0.00     0.027 A 
ATOM     43  H   UNL     1     -45.886  36.063  26.107  1.00  0.00     0.064 H 
ATOM     44  H   UNL     1     -48.042  36.729  27.182  1.00  0.00     0.084 H 
ENDBRANCH  32  35
ENDBRANCH  29  32
ENDBRANCH   3  29
BRANCH   4  45
ATOM     45  O   UNL     1     -49.332  31.710  22.055  1.00  0.00    -0.390 OA
ATOM     46  H   UNL     1     -49.033  32.554  22.445  1.00  0.00     0.211 HD
ENDBRANCH   4  45
TORSDOF 7
ENDMDL
