MODEL 1
REMARK VINA RESULT:     -12.1      0.000      0.000
REMARK SMILES c1cc(-c2cn(Cc3ccc4cc(CN5CC6(CCC6)C5)[nH]c4c3)nn2)c2cn[nH]c2c1
REMARK SMILES IDX 8 1 9 2 10 3 11 4 12 5 13 6 22 7 23 8 24 9 7 15 6 18 4 19
REMARK SMILES IDX 5 20 26 21 25 23 3 24 1 25 2 26 32 27 31 30 27 32 30 33
REMARK SMILES IDX 28 34 29 35 14 38 15 41 16 42 21 43 17 44 18 49 20 50 19 51
REMARK H PARENT 9 10 10 11 12 12 22 13 24 14 7 16 7 17 5 22 1 28 2 29 32 31
REMARK H PARENT 30 36 28 37 14 39 14 40 16 45 16 46 21 47 21 48 18 52 18 53
REMARK H PARENT 20 54 20 55 19 56 19 57
REMARK Flexibility Score: inf
ROOT
ATOM      1  C   UNL     1     -48.089  34.604  26.503  1.00  0.00    -0.024 A 
ATOM      2  C   UNL     1     -46.809  34.625  25.932  1.00  0.00    -0.056 A 
ATOM      3  C   UNL     1     -46.336  33.548  25.171  1.00  0.00    -0.052 A 
ATOM      4  C   UNL     1     -47.165  32.429  24.973  1.00  0.00    -0.000 A 
ATOM      5  C   UNL     1     -47.013  31.198  24.280  1.00  0.00    -0.032 A 
ATOM      6  C   UNL     1     -48.179  30.472  24.431  1.00  0.00     0.030 A 
ATOM      7  N   UNL     1     -49.028  31.231  25.198  1.00  0.00    -0.357 N 
ATOM      8  C   UNL     1     -48.436  32.426  25.542  1.00  0.00     0.046 A 
ATOM      9  C   UNL     1     -48.926  33.492  26.308  1.00  0.00    -0.033 A 
ATOM     10  H   UNL     1     -46.155  35.485  26.079  1.00  0.00     0.063 H 
ATOM     11  H   UNL     1     -45.340  33.578  24.740  1.00  0.00     0.063 H 
ATOM     12  H   UNL     1     -46.139  30.869  23.731  1.00  0.00     0.065 H 
ATOM     13  H   UNL     1     -49.958  30.954  25.480  1.00  0.00     0.166 HD
ATOM     14  H   UNL     1     -49.924  33.451  26.735  1.00  0.00     0.065 H 
ENDROOT
BRANCH   1  15
ATOM     15  C   UNL     1     -48.570  35.775  27.327  1.00  0.00     0.068 C 
ATOM     16  H   UNL     1     -49.311  35.467  28.074  1.00  0.00     0.057 H 
ATOM     17  H   UNL     1     -49.044  36.519  26.675  1.00  0.00     0.057 H 
BRANCH  15  18
ATOM     18  N   UNL     1     -47.489  36.417  28.056  1.00  0.00    -0.247 N 
ATOM     19  C   UNL     1     -45.841  37.649  28.718  1.00  0.00     0.113 A 
ATOM     20  C   UNL     1     -46.742  37.499  27.686  1.00  0.00     0.054 A 
ATOM     21  N   UNL     1     -46.056  36.659  29.642  1.00  0.00    -0.130 NA
ATOM     22  H   UNL     1     -46.920  38.040  26.769  1.00  0.00     0.086 H 
ATOM     23  N   UNL     1     -47.062  35.905  29.223  1.00  0.00    -0.066 NA
BRANCH  19  24
ATOM     24  C   UNL     1     -44.822  38.672  28.829  1.00  0.00     0.015 A 
ATOM     25  C   UNL     1     -42.949  39.719  30.003  1.00  0.00    -0.059 A 
ATOM     26  C   UNL     1     -43.924  38.723  29.914  1.00  0.00    -0.052 A 
ATOM     27  C   UNL     1     -42.830  40.701  29.018  1.00  0.00    -0.036 A 
ATOM     28  H   UNL     1     -42.268  39.726  30.852  1.00  0.00     0.062 H 
ATOM     29  H   UNL     1     -43.969  37.972  30.698  1.00  0.00     0.063 H 
ATOM     30  C   UNL     1     -43.724  40.640  27.945  1.00  0.00     0.066 A 
ATOM     31  H   UNL     1     -42.071  41.474  29.087  1.00  0.00     0.065 H 
ATOM     32  C   UNL     1     -44.707  39.659  27.823  1.00  0.00     0.029 A 
ATOM     33  N   UNL     1     -43.862  41.438  26.840  1.00  0.00    -0.278 N 
ATOM     34  C   UNL     1     -45.364  39.988  26.611  1.00  0.00     0.057 A 
ATOM     35  N   UNL     1     -44.856  41.071  26.015  1.00  0.00    -0.183 NA
ATOM     36  H   UNL     1     -43.312  42.252  26.593  1.00  0.00     0.190 HD
ATOM     37  H   UNL     1     -46.196  39.477  26.141  1.00  0.00     0.087 H 
ENDBRANCH  19  24
ENDBRANCH  15  18
ENDBRANCH   1  15
BRANCH   6  38
ATOM     38  C   UNL     1     -48.562  29.127  23.906  1.00  0.00     0.039 C 
ATOM     39  H   UNL     1     -49.101  29.225  22.953  1.00  0.00     0.050 H 
ATOM     40  H   UNL     1     -47.635  28.584  23.682  1.00  0.00     0.050 H 
BRANCH  38  41
ATOM     41  N   UNL     1     -49.323  28.377  24.911  1.00  0.00    -0.296 NA
ATOM     42  C   UNL     1     -48.490  28.149  26.120  1.00  0.00     0.005 C 
ATOM     43  C   UNL     1     -49.330  26.921  24.612  1.00  0.00     0.005 C 
ATOM     44  C   UNL     1     -48.301  26.721  25.684  1.00  0.00    -0.004 C 
ATOM     45  H   UNL     1     -49.060  28.271  27.050  1.00  0.00     0.044 H 
ATOM     46  H   UNL     1     -47.581  28.756  26.208  1.00  0.00     0.044 H 
ATOM     47  H   UNL     1     -49.032  26.622  23.601  1.00  0.00     0.044 H 
ATOM     48  H   UNL     1     -50.299  26.455  24.823  1.00  0.00     0.044 H 
ATOM     49  C   UNL     1     -48.454  25.611  26.694  1.00  0.00    -0.045 C 
ATOM     50  C   UNL     1     -46.914  26.246  25.322  1.00  0.00    -0.045 C 
ATOM     51  C   UNL     1     -46.906  25.518  26.691  1.00  0.00    -0.052 C 
ATOM     52  H   UNL     1     -48.905  25.873  27.656  1.00  0.00     0.027 H 
ATOM     53  H   UNL     1     -48.943  24.711  26.305  1.00  0.00     0.027 H 
ATOM     54  H   UNL     1     -46.879  25.561  24.468  1.00  0.00     0.027 H 
ATOM     55  H   UNL     1     -46.142  27.010  25.196  1.00  0.00     0.027 H 
ATOM     56  H   UNL     1     -46.431  26.096  27.493  1.00  0.00     0.027 H 
ATOM     57  H   UNL     1     -46.493  24.507  26.687  1.00  0.00     0.027 H 
ENDBRANCH  38  41
ENDBRANCH   6  38
TORSDOF 5
ENDMDL
MODEL 2
REMARK VINA RESULT:     -11.2      2.199      3.537
REMARK SMILES c1cc(-c2cn(Cc3ccc4cc(CN5CC6(CCC6)C5)[nH]c4c3)nn2)c2cn[nH]c2c1
REMARK SMILES IDX 8 1 9 2 10 3 11 4 12 5 13 6 22 7 23 8 24 9 7 15 6 18 4 19
REMARK SMILES IDX 5 20 26 21 25 23 3 24 1 25 2 26 32 27 31 30 27 32 30 33
REMARK SMILES IDX 28 34 29 35 14 38 15 41 16 42 21 43 17 44 18 49 20 50 19 51
REMARK H PARENT 9 10 10 11 12 12 22 13 24 14 7 16 7 17 5 22 1 28 2 29 32 31
REMARK H PARENT 30 36 28 37 14 39 14 40 16 45 16 46 21 47 21 48 18 52 18 53
REMARK H PARENT 20 54 20 55 19 56 19 57
REMARK Flexibility Score: inf
ROOT
ATOM      1  C   UNL     1     -46.950  35.662  28.197  1.00  0.00    -0.024 A 
ATOM      2  C   UNL     1     -48.292  35.760  27.803  1.00  0.00    -0.056 A 
ATOM      3  C   UNL     1     -48.823  34.911  26.823  1.00  0.00    -0.052 A 
ATOM      4  C   UNL     1     -47.995  33.942  26.230  1.00  0.00    -0.000 A 
ATOM      5  C   UNL     1     -48.196  32.948  25.234  1.00  0.00    -0.032 A 
ATOM      6  C   UNL     1     -47.004  32.274  25.051  1.00  0.00     0.030 A 
ATOM      7  N   UNL     1     -46.089  32.836  25.908  1.00  0.00    -0.357 N 
ATOM      8  C   UNL     1     -46.667  33.853  26.636  1.00  0.00     0.046 A 
ATOM      9  C   UNL     1     -46.115  34.693  27.612  1.00  0.00    -0.033 A 
ATOM     10  H   UNL     1     -48.944  36.508  28.253  1.00  0.00     0.063 H 
ATOM     11  H   UNL     1     -49.864  35.003  26.526  1.00  0.00     0.063 H 
ATOM     12  H   UNL     1     -49.115  32.747  24.698  1.00  0.00     0.065 H 
ATOM     13  H   UNL     1     -45.123  32.552  25.993  1.00  0.00     0.166 HD
ATOM     14  H   UNL     1     -45.073  34.593  27.901  1.00  0.00     0.065 H 
ENDROOT
BRANCH   1  15
ATOM     15  C   UNL     1     -46.399  36.596  29.249  1.00  0.00     0.068 C 
ATOM     16  H   UNL     1     -45.458  36.223  29.669  1.00  0.00     0.057 H 
ATOM     17  H   UNL     1     -47.117  36.692  30.073  1.00  0.00     0.057 H 
BRANCH  15  18
ATOM     18  N   UNL     1     -46.121  37.919  28.719  1.00  0.00    -0.247 N 
ATOM     19  C   UNL     1     -45.229  39.718  27.918  1.00  0.00     0.113 A 
ATOM     20  C   UNL     1     -44.937  38.413  28.249  1.00  0.00     0.054 A 
ATOM     21  N   UNL     1     -46.544  39.968  28.216  1.00  0.00    -0.130 NA
ATOM     22  H   UNL     1     -44.042  37.814  28.190  1.00  0.00     0.086 H 
ATOM     23  N   UNL     1     -47.079  38.863  28.714  1.00  0.00    -0.066 NA
BRANCH  19  24
ATOM     24  C   UNL     1     -44.314  40.689  27.353  1.00  0.00     0.015 A 
ATOM     25  C   UNL     1     -43.645  42.225  25.571  1.00  0.00    -0.059 A 
ATOM     26  C   UNL     1     -44.540  41.293  26.100  1.00  0.00    -0.052 A 
ATOM     27  C   UNL     1     -42.491  42.591  26.267  1.00  0.00    -0.036 A 
ATOM     28  H   UNL     1     -43.852  42.676  24.603  1.00  0.00     0.062 H 
ATOM     29  H   UNL     1     -45.431  41.050  25.526  1.00  0.00     0.063 H 
ATOM     30  C   UNL     1     -42.278  41.988  27.510  1.00  0.00     0.066 A 
ATOM     31  H   UNL     1     -41.796  43.317  25.857  1.00  0.00     0.065 H 
ATOM     32  C   UNL     1     -43.152  41.056  28.068  1.00  0.00     0.029 A 
ATOM     33  N   UNL     1     -41.265  42.132  28.421  1.00  0.00    -0.278 N 
ATOM     34  C   UNL     1     -42.543  40.719  29.304  1.00  0.00     0.057 A 
ATOM     35  N   UNL     1     -41.395  41.368  29.517  1.00  0.00    -0.183 NA
ATOM     36  H   UNL     1     -40.453  42.734  28.351  1.00  0.00     0.190 HD
ATOM     37  H   UNL     1     -42.896  40.024  30.055  1.00  0.00     0.087 H 
ENDBRANCH  19  24
ENDBRANCH  15  18
ENDBRANCH   1  15
BRANCH   6  38
ATOM     38  C   UNL     1     -46.656  31.139  24.144  1.00  0.00     0.039 C 
ATOM     39  H   UNL     1     -45.571  31.096  23.981  1.00  0.00     0.050 H 
ATOM     40  H   UNL     1     -46.928  30.209  24.660  1.00  0.00     0.050 H 
BRANCH  38  41
ATOM     41  N   UNL     1     -47.413  31.229  22.891  1.00  0.00    -0.296 NA
ATOM     42  C   UNL     1     -48.756  30.615  23.059  1.00  0.00     0.005 C 
ATOM     43  C   UNL     1     -47.017  30.157  21.940  1.00  0.00     0.005 C 
ATOM     44  C   UNL     1     -48.272  29.415  22.290  1.00  0.00    -0.004 C 
ATOM     45  H   UNL     1     -49.544  31.191  22.557  1.00  0.00     0.044 H 
ATOM     46  H   UNL     1     -49.085  30.433  24.089  1.00  0.00     0.044 H 
ATOM     47  H   UNL     1     -46.077  29.633  22.147  1.00  0.00     0.044 H 
ATOM     48  H   UNL     1     -46.976  30.512  20.903  1.00  0.00     0.044 H 
ATOM     49  C   UNL     1     -49.142  28.828  21.206  1.00  0.00    -0.045 C 
ATOM     50  C   UNL     1     -48.190  28.082  22.995  1.00  0.00    -0.045 C 
ATOM     51  C   UNL     1     -49.472  27.695  22.212  1.00  0.00    -0.052 C 
ATOM     52  H   UNL     1     -49.997  29.425  20.877  1.00  0.00     0.027 H 
ATOM     53  H   UNL     1     -48.591  28.479  20.326  1.00  0.00     0.027 H 
ATOM     54  H   UNL     1     -47.318  27.478  22.720  1.00  0.00     0.027 H 
ATOM     55  H   UNL     1     -48.291  28.085  24.083  1.00  0.00     0.027 H 
ATOM     56  H   UNL     1     -50.397  27.865  22.775  1.00  0.00     0.027 H 
ATOM     57  H   UNL     1     -49.487  26.684  21.797  1.00  0.00     0.027 H 
ENDBRANCH  38  41
ENDBRANCH   6  38
TORSDOF 5
ENDMDL
MODEL 3
REMARK VINA RESULT:     -11.2      1.273      2.102
REMARK SMILES c1cc(-c2cn(Cc3ccc4cc(CN5CC6(CCC6)C5)[nH]c4c3)nn2)c2cn[nH]c2c1
REMARK SMILES IDX 8 1 9 2 10 3 11 4 12 5 13 6 22 7 23 8 24 9 7 15 6 18 4 19
REMARK SMILES IDX 5 20 26 21 25 23 3 24 1 25 2 26 32 27 31 30 27 32 30 33
REMARK SMILES IDX 28 34 29 35 14 38 15 41 16 42 21 43 17 44 18 49 20 50 19 51
REMARK H PARENT 9 10 10 11 12 12 22 13 24 14 7 16 7 17 5 22 1 28 2 29 32 31
REMARK H PARENT 30 36 28 37 14 39 14 40 16 45 16 46 21 47 21 48 18 52 18 53
REMARK H PARENT 20 54 20 55 19 56 19 57
REMARK Flexibility Score: inf
ROOT
ATOM      1  C   UNL     1     -47.937  35.037  26.712  1.00  0.00    -0.024 A 
ATOM      2  C   UNL     1     -46.669  34.980  26.116  1.00  0.00    -0.056 A 
ATOM      3  C   UNL     1     -46.287  33.887  25.329  1.00  0.00    -0.052 A 
ATOM      4  C   UNL     1     -47.195  32.832  25.128  1.00  0.00    -0.000 A 
ATOM      5  C   UNL     1     -47.141  31.606  24.412  1.00  0.00    -0.032 A 
ATOM      6  C   UNL     1     -48.352  30.960  24.573  1.00  0.00     0.030 A 
ATOM      7  N   UNL     1     -49.132  31.762  25.369  1.00  0.00    -0.357 N 
ATOM      8  C   UNL     1     -48.452  32.906  25.721  1.00  0.00     0.046 A 
ATOM      9  C   UNL     1     -48.854  33.989  26.514  1.00  0.00    -0.033 A 
ATOM     10  H   UNL     1     -45.955  35.790  26.265  1.00  0.00     0.063 H 
ATOM     11  H   UNL     1     -45.299  33.856  24.878  1.00  0.00     0.063 H 
ATOM     12  H   UNL     1     -46.303  31.228  23.840  1.00  0.00     0.065 H 
ATOM     13  H   UNL     1     -50.074  31.544  25.665  1.00  0.00     0.166 HD
ATOM     14  H   UNL     1     -49.843  34.010  26.961  1.00  0.00     0.065 H 
ENDROOT
BRANCH   1  15
ATOM     15  C   UNL     1     -48.321  36.224  27.565  1.00  0.00     0.068 C 
ATOM     16  H   UNL     1     -48.734  35.912  28.530  1.00  0.00     0.057 H 
ATOM     17  H   UNL     1     -49.086  36.819  27.052  1.00  0.00     0.057 H 
BRANCH  15  18
ATOM     18  N   UNL     1     -47.185  37.081  27.859  1.00  0.00    -0.247 N 
ATOM     19  C   UNL     1     -45.620  38.572  27.854  1.00  0.00     0.113 A 
ATOM     20  C   UNL     1     -46.745  38.173  27.167  1.00  0.00     0.054 A 
ATOM     21  N   UNL     1     -45.410  37.710  28.900  1.00  0.00    -0.130 NA
ATOM     22  H   UNL     1     -47.256  38.552  26.295  1.00  0.00     0.086 H 
ATOM     23  N   UNL     1     -46.370  36.795  28.889  1.00  0.00    -0.066 NA
BRANCH  19  24
ATOM     24  C   UNL     1     -44.776  39.706  27.541  1.00  0.00     0.015 A 
ATOM     25  C   UNL     1     -44.090  41.529  26.062  1.00  0.00    -0.059 A 
ATOM     26  C   UNL     1     -44.916  40.439  26.346  1.00  0.00    -0.052 A 
ATOM     27  C   UNL     1     -43.094  41.931  26.954  1.00  0.00    -0.036 A 
ATOM     28  H   UNL     1     -44.228  42.077  25.131  1.00  0.00     0.062 H 
ATOM     29  H   UNL     1     -45.685  40.173  25.626  1.00  0.00     0.063 H 
ATOM     30  C   UNL     1     -42.966  41.199  28.137  1.00  0.00     0.066 A 
ATOM     31  H   UNL     1     -42.454  42.779  26.734  1.00  0.00     0.065 H 
ATOM     32  C   UNL     1     -43.774  40.108  28.455  1.00  0.00     0.029 A 
ATOM     33  N   UNL     1     -42.106  41.338  29.196  1.00  0.00    -0.278 N 
ATOM     34  C   UNL     1     -43.291  39.685  29.718  1.00  0.00     0.057 A 
ATOM     35  N   UNL     1     -42.275  40.427  30.168  1.00  0.00    -0.183 NA
ATOM     36  H   UNL     1     -41.379  42.033  29.313  1.00  0.00     0.190 HD
ATOM     37  H   UNL     1     -43.643  38.861  30.327  1.00  0.00     0.087 H 
ENDBRANCH  19  24
ENDBRANCH  15  18
ENDBRANCH   1  15
BRANCH   6  38
ATOM     38  C   UNL     1     -48.838  29.654  24.033  1.00  0.00     0.039 C 
ATOM     39  H   UNL     1     -49.888  29.491  24.309  1.00  0.00     0.050 H 
ATOM     40  H   UNL     1     -48.813  29.721  22.937  1.00  0.00     0.050 H 
BRANCH  38  41
ATOM     41  N   UNL     1     -47.963  28.559  24.463  1.00  0.00    -0.296 NA
ATOM     42  C   UNL     1     -48.555  27.249  24.082  1.00  0.00     0.005 C 
ATOM     43  C   UNL     1     -48.149  28.250  25.905  1.00  0.00     0.005 C 
ATOM     44  C   UNL     1     -48.956  27.046  25.519  1.00  0.00    -0.004 C 
ATOM     45  H   UNL     1     -47.801  26.541  23.715  1.00  0.00     0.044 H 
ATOM     46  H   UNL     1     -49.368  27.276  23.348  1.00  0.00     0.044 H 
ATOM     47  H   UNL     1     -48.669  29.001  26.509  1.00  0.00     0.044 H 
ATOM     48  H   UNL     1     -47.204  28.017  26.409  1.00  0.00     0.044 H 
ATOM     49  C   UNL     1     -48.705  25.713  26.177  1.00  0.00    -0.045 C 
ATOM     50  C   UNL     1     -50.425  26.979  25.862  1.00  0.00    -0.045 C 
ATOM     51  C   UNL     1     -50.224  25.449  26.012  1.00  0.00    -0.052 C 
ATOM     52  H   UNL     1     -48.050  25.014  25.651  1.00  0.00     0.027 H 
ATOM     53  H   UNL     1     -48.389  25.779  27.224  1.00  0.00     0.027 H 
ATOM     54  H   UNL     1     -50.693  27.474  26.803  1.00  0.00     0.027 H 
ATOM     55  H   UNL     1     -51.134  27.283  25.088  1.00  0.00     0.027 H 
ATOM     56  H   UNL     1     -50.475  24.883  25.106  1.00  0.00     0.027 H 
ATOM     57  H   UNL     1     -50.720  24.988  26.870  1.00  0.00     0.027 H 
ENDBRANCH  38  41
ENDBRANCH   6  38
TORSDOF 5
ENDMDL
MODEL 4
REMARK VINA RESULT:     -11.0      2.170      2.999
REMARK SMILES c1cc(-c2cn(Cc3ccc4cc(CN5CC6(CCC6)C5)[nH]c4c3)nn2)c2cn[nH]c2c1
REMARK SMILES IDX 8 1 9 2 10 3 11 4 12 5 13 6 22 7 23 8 24 9 7 15 6 18 4 19
REMARK SMILES IDX 5 20 26 21 25 23 3 24 1 25 2 26 32 27 31 30 27 32 30 33
REMARK SMILES IDX 28 34 29 35 14 38 15 41 16 42 21 43 17 44 18 49 20 50 19 51
REMARK H PARENT 9 10 10 11 12 12 22 13 24 14 7 16 7 17 5 22 1 28 2 29 32 31
REMARK H PARENT 30 36 28 37 14 39 14 40 16 45 16 46 21 47 21 48 18 52 18 53
REMARK H PARENT 20 54 20 55 19 56 19 57
REMARK Flexibility Score: inf
ROOT
ATOM      1  C   UNL     1     -47.537  35.909  27.286  1.00  0.00    -0.024 A 
ATOM      2  C   UNL     1     -46.254  35.538  26.859  1.00  0.00    -0.056 A 
ATOM      3  C   UNL     1     -46.045  34.361  26.131  1.00  0.00    -0.052 A 
ATOM      4  C   UNL     1     -47.142  33.540  25.818  1.00  0.00    -0.000 A 
ATOM      5  C   UNL     1     -47.289  32.312  25.118  1.00  0.00    -0.032 A 
ATOM      6  C   UNL     1     -48.629  31.971  25.123  1.00  0.00     0.030 A 
ATOM      7  N   UNL     1     -49.292  32.958  25.809  1.00  0.00    -0.357 N 
ATOM      8  C   UNL     1     -48.411  33.924  26.243  1.00  0.00     0.046 A 
ATOM      9  C   UNL     1     -48.642  35.097  26.975  1.00  0.00    -0.033 A 
ATOM     10  H   UNL     1     -45.394  36.164  27.097  1.00  0.00     0.063 H 
ATOM     11  H   UNL     1     -45.043  34.086  25.812  1.00  0.00     0.063 H 
ATOM     12  H   UNL     1     -46.499  31.730  24.660  1.00  0.00     0.065 H 
ATOM     13  H   UNL     1     -50.287  32.976  25.982  1.00  0.00     0.166 HD
ATOM     14  H   UNL     1     -49.647  35.362  27.289  1.00  0.00     0.065 H 
ENDROOT
BRANCH   1  15
ATOM     15  C   UNL     1     -47.735  37.180  28.079  1.00  0.00     0.068 C 
ATOM     16  H   UNL     1     -47.700  36.993  29.158  1.00  0.00     0.057 H 
ATOM     17  H   UNL     1     -48.715  37.613  27.848  1.00  0.00     0.057 H 
BRANCH  15  18
ATOM     18  N   UNL     1     -46.710  38.169  27.796  1.00  0.00    -0.247 N 
ATOM     19  C   UNL     1     -45.042  39.543  27.853  1.00  0.00     0.113 A 
ATOM     20  C   UNL     1     -45.664  38.556  28.585  1.00  0.00     0.054 A 
ATOM     21  N   UNL     1     -45.734  39.731  26.683  1.00  0.00    -0.130 NA
ATOM     22  H   UNL     1     -45.465  38.107  29.546  1.00  0.00     0.086 H 
ATOM     23  N   UNL     1     -46.758  38.890  26.662  1.00  0.00    -0.066 NA
BRANCH  19  24
ATOM     24  C   UNL     1     -43.856  40.282  28.234  1.00  0.00     0.015 A 
ATOM     25  C   UNL     1     -42.008  40.730  29.773  1.00  0.00    -0.059 A 
ATOM     26  C   UNL     1     -43.149  40.005  29.421  1.00  0.00    -0.052 A 
ATOM     27  C   UNL     1     -41.528  41.757  28.958  1.00  0.00    -0.036 A 
ATOM     28  H   UNL     1     -41.482  40.487  30.694  1.00  0.00     0.062 H 
ATOM     29  H   UNL     1     -43.476  39.205  30.081  1.00  0.00     0.063 H 
ATOM     30  C   UNL     1     -42.236  42.022  27.782  1.00  0.00     0.066 A 
ATOM     31  H   UNL     1     -40.640  42.320  29.231  1.00  0.00     0.065 H 
ATOM     32  C   UNL     1     -43.375  41.317  27.400  1.00  0.00     0.029 A 
ATOM     33  N   UNL     1     -42.025  42.944  26.790  1.00  0.00    -0.278 N 
ATOM     34  C   UNL     1     -43.749  41.918  26.172  1.00  0.00     0.057 A 
ATOM     35  N   UNL     1     -42.933  42.910  25.803  1.00  0.00    -0.183 NA
ATOM     36  H   UNL     1     -41.280  43.628  26.732  1.00  0.00     0.190 HD
ATOM     37  H   UNL     1     -44.588  41.670  25.533  1.00  0.00     0.087 H 
ENDBRANCH  19  24
ENDBRANCH  15  18
ENDBRANCH   1  15
BRANCH   6  38
ATOM     38  C   UNL     1     -49.336  30.797  24.528  1.00  0.00     0.039 C 
ATOM     39  H   UNL     1     -48.816  29.864  24.785  1.00  0.00     0.050 H 
ATOM     40  H   UNL     1     -50.327  30.738  24.997  1.00  0.00     0.050 H 
BRANCH  38  41
ATOM     41  N   UNL     1     -49.503  30.972  23.082  1.00  0.00    -0.296 NA
ATOM     42  C   UNL     1     -50.532  30.031  22.566  1.00  0.00     0.005 C 
ATOM     43  C   UNL     1     -48.440  30.261  22.323  1.00  0.00     0.005 C 
ATOM     44  C   UNL     1     -49.428  29.181  21.998  1.00  0.00    -0.004 C 
ATOM     45  H   UNL     1     -51.183  30.495  21.815  1.00  0.00     0.044 H 
ATOM     46  H   UNL     1     -51.178  29.556  23.314  1.00  0.00     0.044 H 
ATOM     47  H   UNL     1     -47.555  29.947  22.888  1.00  0.00     0.044 H 
ATOM     48  H   UNL     1     -48.093  30.832  21.454  1.00  0.00     0.044 H 
ATOM     49  C   UNL     1     -49.549  28.652  20.591  1.00  0.00    -0.045 C 
ATOM     50  C   UNL     1     -49.229  27.786  22.543  1.00  0.00    -0.045 C 
ATOM     51  C   UNL     1     -49.888  27.281  21.233  1.00  0.00    -0.052 C 
ATOM     52  H   UNL     1     -50.334  29.081  19.964  1.00  0.00     0.027 H 
ATOM     53  H   UNL     1     -48.608  28.645  20.030  1.00  0.00     0.027 H 
ATOM     54  H   UNL     1     -48.180  27.484  22.642  1.00  0.00     0.027 H 
ATOM     55  H   UNL     1     -49.761  27.527  23.462  1.00  0.00     0.027 H 
ATOM     56  H   UNL     1     -50.965  27.097  21.327  1.00  0.00     0.027 H 
ATOM     57  H   UNL     1     -49.416  26.412  20.769  1.00  0.00     0.027 H 
ENDBRANCH  38  41
ENDBRANCH   6  38
TORSDOF 5
ENDMDL
MODEL 5
REMARK VINA RESULT:     -10.9      2.335      4.163
REMARK SMILES c1cc(-c2cn(Cc3ccc4cc(CN5CC6(CCC6)C5)[nH]c4c3)nn2)c2cn[nH]c2c1
REMARK SMILES IDX 8 1 9 2 10 3 11 4 12 5 13 6 22 7 23 8 24 9 7 15 6 18 4 19
REMARK SMILES IDX 5 20 26 21 25 23 3 24 1 25 2 26 32 27 31 30 27 32 30 33
REMARK SMILES IDX 28 34 29 35 14 38 15 41 16 42 21 43 17 44 18 49 20 50 19 51
REMARK H PARENT 9 10 10 11 12 12 22 13 24 14 7 16 7 17 5 22 1 28 2 29 32 31
REMARK H PARENT 30 36 28 37 14 39 14 40 16 45 16 46 21 47 21 48 18 52 18 53
REMARK H PARENT 20 54 20 55 19 56 19 57
REMARK Flexibility Score: inf
ROOT
ATOM      1  C   UNL     1     -46.610  37.133  28.281  1.00  0.00    -0.024 A 
ATOM      2  C   UNL     1     -47.995  37.029  28.088  1.00  0.00    -0.056 A 
ATOM      3  C   UNL     1     -48.545  35.984  27.336  1.00  0.00    -0.052 A 
ATOM      4  C   UNL     1     -47.692  35.021  26.769  1.00  0.00    -0.000 A 
ATOM      5  C   UNL     1     -47.902  33.864  25.970  1.00  0.00    -0.032 A 
ATOM      6  C   UNL     1     -46.671  33.294  25.706  1.00  0.00     0.030 A 
ATOM      7  N   UNL     1     -45.726  34.077  26.322  1.00  0.00    -0.357 N 
ATOM      8  C   UNL     1     -46.320  35.134  26.974  1.00  0.00     0.046 A 
ATOM      9  C   UNL     1     -45.749  36.173  27.722  1.00  0.00    -0.033 A 
ATOM     10  H   UNL     1     -48.668  37.770  28.520  1.00  0.00     0.063 H 
ATOM     11  H   UNL     1     -49.620  35.921  27.192  1.00  0.00     0.063 H 
ATOM     12  H   UNL     1     -48.853  33.487  25.617  1.00  0.00     0.065 H 
ATOM     13  H   UNL     1     -44.729  33.910  26.297  1.00  0.00     0.166 HD
ATOM     14  H   UNL     1     -44.673  36.227  27.859  1.00  0.00     0.065 H 
ENDROOT
BRANCH   1  15
ATOM     15  C   UNL     1     -46.042  38.276  29.090  1.00  0.00     0.068 C 
ATOM     16  H   UNL     1     -45.145  37.974  29.643  1.00  0.00     0.057 H 
ATOM     17  H   UNL     1     -46.784  38.619  29.821  1.00  0.00     0.057 H 
BRANCH  15  18
ATOM     18  N   UNL     1     -45.655  39.401  28.257  1.00  0.00    -0.247 N 
ATOM     19  C   UNL     1     -44.611  40.932  27.144  1.00  0.00     0.113 A 
ATOM     20  C   UNL     1     -44.400  39.794  27.891  1.00  0.00     0.054 A 
ATOM     21  N   UNL     1     -45.957  41.194  27.106  1.00  0.00    -0.130 NA
ATOM     22  H   UNL     1     -43.515  39.246  28.177  1.00  0.00     0.086 H 
ATOM     23  N   UNL     1     -46.587  40.256  27.798  1.00  0.00    -0.066 NA
BRANCH  19  24
ATOM     24  C   UNL     1     -43.597  41.740  26.498  1.00  0.00     0.015 A 
ATOM     25  C   UNL     1     -41.271  42.438  26.209  1.00  0.00    -0.059 A 
ATOM     26  C   UNL     1     -42.233  41.648  26.842  1.00  0.00    -0.052 A 
ATOM     27  C   UNL     1     -41.627  43.348  25.212  1.00  0.00    -0.036 A 
ATOM     28  H   UNL     1     -40.225  42.339  26.495  1.00  0.00     0.062 H 
ATOM     29  H   UNL     1     -41.905  40.945  27.603  1.00  0.00     0.063 H 
ATOM     30  C   UNL     1     -42.982  43.429  24.878  1.00  0.00     0.066 A 
ATOM     31  H   UNL     1     -40.878  43.960  24.719  1.00  0.00     0.065 H 
ATOM     32  C   UNL     1     -43.968  42.655  25.486  1.00  0.00     0.029 A 
ATOM     33  N   UNL     1     -43.639  44.204  23.959  1.00  0.00    -0.278 N 
ATOM     34  C   UNL     1     -45.165  43.068  24.848  1.00  0.00     0.057 A 
ATOM     35  N   UNL     1     -44.967  44.013  23.924  1.00  0.00    -0.183 NA
ATOM     36  H   UNL     1     -43.238  44.888  23.327  1.00  0.00     0.190 HD
ATOM     37  H   UNL     1     -46.173  42.715  25.025  1.00  0.00     0.087 H 
ENDBRANCH  19  24
ENDBRANCH  15  18
ENDBRANCH   1  15
BRANCH   6  38
ATOM     38  C   UNL     1     -46.312  32.069  24.930  1.00  0.00     0.039 C 
ATOM     39  H   UNL     1     -45.223  31.999  24.804  1.00  0.00     0.050 H 
ATOM     40  H   UNL     1     -46.610  31.199  25.530  1.00  0.00     0.050 H 
BRANCH  38  41
ATOM     41  N   UNL     1     -47.033  32.036  23.653  1.00  0.00    -0.296 NA
ATOM     42  C   UNL     1     -48.257  31.201  23.776  1.00  0.00     0.005 C 
ATOM     43  C   UNL     1     -46.429  31.054  22.714  1.00  0.00     0.005 C 
ATOM     44  C   UNL     1     -47.550  30.107  23.022  1.00  0.00    -0.004 C 
ATOM     45  H   UNL     1     -49.115  31.638  23.249  1.00  0.00     0.044 H 
ATOM     46  H   UNL     1     -48.583  30.960  24.795  1.00  0.00     0.044 H 
ATOM     47  H   UNL     1     -45.421  30.697  22.952  1.00  0.00     0.044 H 
ATOM     48  H   UNL     1     -46.417  31.418  21.680  1.00  0.00     0.044 H 
ATOM     49  C   UNL     1     -48.272  29.388  21.910  1.00  0.00    -0.045 C 
ATOM     50  C   UNL     1     -47.265  28.803  23.728  1.00  0.00    -0.045 C 
ATOM     51  C   UNL     1     -48.436  28.208  22.903  1.00  0.00    -0.052 C 
ATOM     52  H   UNL     1     -49.205  29.832  21.554  1.00  0.00     0.027 H 
ATOM     53  H   UNL     1     -47.642  29.143  21.048  1.00  0.00     0.027 H 
ATOM     54  H   UNL     1     -46.294  28.358  23.482  1.00  0.00     0.027 H 
ATOM     55  H   UNL     1     -47.400  28.781  24.812  1.00  0.00     0.027 H 
ATOM     56  H   UNL     1     -49.395  28.214  23.436  1.00  0.00     0.027 H 
ATOM     57  H   UNL     1     -48.265  27.212  22.487  1.00  0.00     0.027 H 
ENDBRANCH  38  41
ENDBRANCH   6  38
TORSDOF 5
ENDMDL
MODEL 6
REMARK VINA RESULT:     -10.7      2.328     11.220
REMARK SMILES c1cc(-c2cn(Cc3ccc4cc(CN5CC6(CCC6)C5)[nH]c4c3)nn2)c2cn[nH]c2c1
REMARK SMILES IDX 8 1 9 2 10 3 11 4 12 5 13 6 22 7 23 8 24 9 7 15 6 18 4 19
REMARK SMILES IDX 5 20 26 21 25 23 3 24 1 25 2 26 32 27 31 30 27 32 30 33
REMARK SMILES IDX 28 34 29 35 14 38 15 41 16 42 21 43 17 44 18 49 20 50 19 51
REMARK H PARENT 9 10 10 11 12 12 22 13 24 14 7 16 7 17 5 22 1 28 2 29 32 31
REMARK H PARENT 30 36 28 37 14 39 14 40 16 45 16 46 21 47 21 48 18 52 18 53
REMARK H PARENT 20 54 20 55 19 56 19 57
REMARK Flexibility Score: inf
ROOT
ATOM      1  C   UNL     1     -47.460  36.339  27.817  1.00  0.00    -0.024 A 
ATOM      2  C   UNL     1     -46.991  36.037  29.104  1.00  0.00    -0.056 A 
ATOM      3  C   UNL     1     -45.982  36.799  29.705  1.00  0.00    -0.052 A 
ATOM      4  C   UNL     1     -45.433  37.889  29.006  1.00  0.00    -0.000 A 
ATOM      5  C   UNL     1     -44.425  38.846  29.303  1.00  0.00    -0.032 A 
ATOM      6  C   UNL     1     -44.309  39.698  28.221  1.00  0.00     0.030 A 
ATOM      7  N   UNL     1     -45.217  39.279  27.279  1.00  0.00    -0.357 N 
ATOM      8  C   UNL     1     -45.913  38.180  27.732  1.00  0.00     0.046 A 
ATOM      9  C   UNL     1     -46.921  37.429  27.112  1.00  0.00    -0.033 A 
ATOM     10  H   UNL     1     -47.406  35.194  29.656  1.00  0.00     0.063 H 
ATOM     11  H   UNL     1     -45.626  36.549  30.701  1.00  0.00     0.063 H 
ATOM     12  H   UNL     1     -43.838  38.906  30.210  1.00  0.00     0.065 H 
ATOM     13  H   UNL     1     -45.354  39.708  26.376  1.00  0.00     0.166 HD
ATOM     14  H   UNL     1     -47.267  37.687  26.116  1.00  0.00     0.065 H 
ENDROOT
BRANCH   1  15
ATOM     15  C   UNL     1     -48.544  35.495  27.188  1.00  0.00     0.068 C 
ATOM     16  H   UNL     1     -48.963  35.974  26.296  1.00  0.00     0.057 H 
ATOM     17  H   UNL     1     -49.362  35.348  27.903  1.00  0.00     0.057 H 
BRANCH  15  18
ATOM     18  N   UNL     1     -48.053  34.193  26.768  1.00  0.00    -0.247 N 
ATOM     19  C   UNL     1     -47.772  32.231  25.908  1.00  0.00     0.113 A 
ATOM     20  C   UNL     1     -48.636  33.304  25.911  1.00  0.00     0.054 A 
ATOM     21  N   UNL     1     -46.734  32.494  26.764  1.00  0.00    -0.130 NA
ATOM     22  H   UNL     1     -49.563  33.513  25.401  1.00  0.00     0.086 H 
ATOM     23  N   UNL     1     -46.920  33.695  27.292  1.00  0.00    -0.066 NA
BRANCH  19  24
ATOM     24  C   UNL     1     -47.917  31.010  25.141  1.00  0.00     0.015 A 
ATOM     25  C   UNL     1     -48.913  28.805  24.782  1.00  0.00    -0.059 A 
ATOM     26  C   UNL     1     -48.789  29.975  25.535  1.00  0.00    -0.052 A 
ATOM     27  C   UNL     1     -48.176  28.620  23.611  1.00  0.00    -0.036 A 
ATOM     28  H   UNL     1     -49.599  28.027  25.112  1.00  0.00     0.062 H 
ATOM     29  H   UNL     1     -49.394  30.079  26.432  1.00  0.00     0.063 H 
ATOM     30  C   UNL     1     -47.316  29.654  23.229  1.00  0.00     0.066 A 
ATOM     31  H   UNL     1     -48.274  27.711  23.025  1.00  0.00     0.065 H 
ATOM     32  C   UNL     1     -47.170  30.835  23.954  1.00  0.00     0.029 A 
ATOM     33  N   UNL     1     -46.476  29.778  22.153  1.00  0.00    -0.278 N 
ATOM     34  C   UNL     1     -46.213  31.572  23.211  1.00  0.00     0.057 A 
ATOM     35  N   UNL     1     -45.787  30.929  22.120  1.00  0.00    -0.183 NA
ATOM     36  H   UNL     1     -46.325  29.108  21.407  1.00  0.00     0.190 HD
ATOM     37  H   UNL     1     -45.810  32.554  23.428  1.00  0.00     0.087 H 
ENDBRANCH  19  24
ENDBRANCH  15  18
ENDBRANCH   1  15
BRANCH   6  38
ATOM     38  C   UNL     1     -43.419  40.879  28.003  1.00  0.00     0.039 C 
ATOM     39  H   UNL     1     -42.906  41.150  28.935  1.00  0.00     0.050 H 
ATOM     40  H   UNL     1     -42.636  40.575  27.296  1.00  0.00     0.050 H 
BRANCH  38  41
ATOM     41  N   UNL     1     -44.175  41.996  27.428  1.00  0.00    -0.296 NA
ATOM     42  C   UNL     1     -44.062  41.982  25.945  1.00  0.00     0.005 C 
ATOM     43  C   UNL     1     -43.404  43.265  27.497  1.00  0.00     0.005 C 
ATOM     44  C   UNL     1     -43.088  43.126  26.038  1.00  0.00    -0.004 C 
ATOM     45  H   UNL     1     -45.011  42.229  25.452  1.00  0.00     0.044 H 
ATOM     46  H   UNL     1     -43.686  41.057  25.493  1.00  0.00     0.044 H 
ATOM     47  H   UNL     1     -42.542  43.285  28.174  1.00  0.00     0.044 H 
ATOM     48  H   UNL     1     -44.037  44.126  27.741  1.00  0.00     0.044 H 
ATOM     49  C   UNL     1     -43.237  44.302  25.106  1.00  0.00    -0.045 C 
ATOM     50  C   UNL     1     -41.662  42.907  25.590  1.00  0.00    -0.045 C 
ATOM     51  C   UNL     1     -42.035  43.716  24.321  1.00  0.00    -0.052 C 
ATOM     52  H   UNL     1     -44.171  44.377  24.544  1.00  0.00     0.027 H 
ATOM     53  H   UNL     1     -43.020  45.273  25.568  1.00  0.00     0.027 H 
ATOM     54  H   UNL     1     -40.911  43.404  26.215  1.00  0.00     0.027 H 
ATOM     55  H   UNL     1     -41.348  41.876  25.411  1.00  0.00     0.027 H 
ATOM     56  H   UNL     1     -42.331  43.088  23.472  1.00  0.00     0.027 H 
ATOM     57  H   UNL     1     -41.290  44.441  23.986  1.00  0.00     0.027 H 
ENDBRANCH  38  41
ENDBRANCH   6  38
TORSDOF 5
ENDMDL
MODEL 7
REMARK VINA RESULT:     -10.4      2.116      3.475
REMARK SMILES c1cc(-c2cn(Cc3ccc4cc(CN5CC6(CCC6)C5)[nH]c4c3)nn2)c2cn[nH]c2c1
REMARK SMILES IDX 8 1 9 2 10 3 11 4 12 5 13 6 22 7 23 8 24 9 7 15 6 18 4 19
REMARK SMILES IDX 5 20 26 21 25 23 3 24 1 25 2 26 32 27 31 30 27 32 30 33
REMARK SMILES IDX 28 34 29 35 14 38 15 41 16 42 21 43 17 44 18 49 20 50 19 51
REMARK H PARENT 9 10 10 11 12 12 22 13 24 14 7 16 7 17 5 22 1 28 2 29 32 31
REMARK H PARENT 30 36 28 37 14 39 14 40 16 45 16 46 21 47 21 48 18 52 18 53
REMARK H PARENT 20 54 20 55 19 56 19 57
REMARK Flexibility Score: inf
ROOT
ATOM      1  C   UNL     1     -47.843  35.164  26.958  1.00  0.00    -0.024 A 
ATOM      2  C   UNL     1     -46.536  35.132  26.452  1.00  0.00    -0.056 A 
ATOM      3  C   UNL     1     -46.080  34.047  25.692  1.00  0.00    -0.052 A 
ATOM      4  C   UNL     1     -46.952  32.976  25.429  1.00  0.00    -0.000 A 
ATOM      5  C   UNL     1     -46.825  31.752  24.718  1.00  0.00    -0.032 A 
ATOM      6  C   UNL     1     -48.032  31.083  24.795  1.00  0.00     0.030 A 
ATOM      7  N   UNL     1     -48.881  31.869  25.535  1.00  0.00    -0.357 N 
ATOM      8  C   UNL     1     -48.248  33.025  25.934  1.00  0.00     0.046 A 
ATOM      9  C   UNL     1     -48.724  34.100  26.697  1.00  0.00    -0.033 A 
ATOM     10  H   UNL     1     -45.850  35.955  26.649  1.00  0.00     0.063 H 
ATOM     11  H   UNL     1     -45.063  34.036  25.311  1.00  0.00     0.063 H 
ATOM     12  H   UNL     1     -45.943  31.390  24.206  1.00  0.00     0.065 H 
ATOM     13  H   UNL     1     -49.836  31.633  25.765  1.00  0.00     0.166 HD
ATOM     14  H   UNL     1     -49.742  34.101  27.074  1.00  0.00     0.065 H 
ENDROOT
BRANCH   1  15
ATOM     15  C   UNL     1     -48.308  36.343  27.782  1.00  0.00     0.068 C 
ATOM     16  H   UNL     1     -48.749  36.023  28.733  1.00  0.00     0.057 H 
ATOM     17  H   UNL     1     -49.073  36.903  27.232  1.00  0.00     0.057 H 
BRANCH  15  18
ATOM     18  N   UNL     1     -47.219  37.245  28.114  1.00  0.00    -0.247 N 
ATOM     19  C   UNL     1     -45.634  38.716  28.119  1.00  0.00     0.113 A 
ATOM     20  C   UNL     1     -46.628  38.188  27.323  1.00  0.00     0.054 A 
ATOM     21  N   UNL     1     -45.645  38.069  29.328  1.00  0.00    -0.130 NA
ATOM     22  H   UNL     1     -46.960  38.391  26.316  1.00  0.00     0.086 H 
ATOM     23  N   UNL     1     -46.614  37.165  29.312  1.00  0.00    -0.066 NA
BRANCH  19  24
ATOM     24  C   UNL     1     -44.713  39.774  27.759  1.00  0.00     0.015 A 
ATOM     25  C   UNL     1     -43.944  41.525  26.235  1.00  0.00    -0.059 A 
ATOM     26  C   UNL     1     -44.844  40.509  26.564  1.00  0.00    -0.052 A 
ATOM     27  C   UNL     1     -42.880  41.848  27.080  1.00  0.00    -0.036 A 
ATOM     28  H   UNL     1     -44.076  42.077  25.306  1.00  0.00     0.062 H 
ATOM     29  H   UNL     1     -45.663  40.304  25.880  1.00  0.00     0.063 H 
ATOM     30  C   UNL     1     -42.762  41.114  28.264  1.00  0.00     0.066 A 
ATOM     31  H   UNL     1     -42.182  42.639  26.825  1.00  0.00     0.065 H 
ATOM     32  C   UNL     1     -43.643  40.096  28.625  1.00  0.00     0.029 A 
ATOM     33  N   UNL     1     -41.849  41.188  29.284  1.00  0.00    -0.278 N 
ATOM     34  C   UNL     1     -43.143  39.642  29.871  1.00  0.00     0.057 A 
ATOM     35  N   UNL     1     -42.050  40.300  30.270  1.00  0.00    -0.183 NA
ATOM     36  H   UNL     1     -41.062  41.821  29.363  1.00  0.00     0.190 HD
ATOM     37  H   UNL     1     -43.535  38.854  30.502  1.00  0.00     0.087 H 
ENDBRANCH  19  24
ENDBRANCH  15  18
ENDBRANCH   1  15
BRANCH   6  38
ATOM     38  C   UNL     1     -48.454  29.769  24.222  1.00  0.00     0.039 C 
ATOM     39  H   UNL     1     -47.648  29.337  23.615  1.00  0.00     0.050 H 
ATOM     40  H   UNL     1     -48.613  29.079  25.062  1.00  0.00     0.050 H 
BRANCH  38  41
ATOM     41  N   UNL     1     -49.710  29.909  23.477  1.00  0.00    -0.296 NA
ATOM     42  C   UNL     1     -49.607  29.220  22.164  1.00  0.00     0.005 C 
ATOM     43  C   UNL     1     -49.796  31.231  22.803  1.00  0.00     0.005 C 
ATOM     44  C   UNL     1     -49.454  30.564  21.504  1.00  0.00    -0.004 C 
ATOM     45  H   UNL     1     -50.527  28.684  21.901  1.00  0.00     0.044 H 
ATOM     46  H   UNL     1     -48.771  28.520  22.044  1.00  0.00     0.044 H 
ATOM     47  H   UNL     1     -49.099  32.006  23.142  1.00  0.00     0.044 H 
ATOM     48  H   UNL     1     -50.806  31.655  22.841  1.00  0.00     0.044 H 
ATOM     49  C   UNL     1     -50.243  30.870  20.256  1.00  0.00    -0.045 C 
ATOM     50  C   UNL     1     -48.155  30.890  20.806  1.00  0.00    -0.045 C 
ATOM     51  C   UNL     1     -48.919  30.655  19.477  1.00  0.00    -0.052 C 
ATOM     52  H   UNL     1     -51.053  30.183  19.998  1.00  0.00     0.027 H 
ATOM     53  H   UNL     1     -50.616  31.899  20.199  1.00  0.00     0.027 H 
ATOM     54  H   UNL     1     -47.820  31.925  20.934  1.00  0.00     0.027 H 
ATOM     55  H   UNL     1     -47.311  30.219  20.983  1.00  0.00     0.027 H 
ATOM     56  H   UNL     1     -48.806  29.639  19.079  1.00  0.00     0.027 H 
ATOM     57  H   UNL     1     -48.717  31.375  18.680  1.00  0.00     0.027 H 
ENDBRANCH  38  41
ENDBRANCH   6  38
TORSDOF 5
ENDMDL
