MODEL 1
REMARK VINA RESULT:     -10.3      0.000      0.000
REMARK SMILES CNc1ccc2ccc(OC[C@H]3O[C@@H](n4cc(-c5cc(C)n(C)n5)c5c(N)ncnc54)[C@@H](F)[C@@H]3O)cc2n1
REMARK SMILES IDX 11 1 10 4 9 5 3 6 4 7 38 8 5 9 37 11 6 12 36 14 7 15 8 17
REMARK SMILES IDX 2 20 1 22 12 26 13 27 34 28 14 30 32 31 33 34 35 36 15 38
REMARK SMILES IDX 16 39 31 40 17 41 25 43 30 44 26 45 29 46 28 47 18 49 19 50
REMARK SMILES IDX 24 51 20 52 22 54 21 55 23 59 27 63
REMARK H PARENT 11 2 11 3 4 10 5 13 36 16 7 18 8 19 2 21 1 23 1 24 1 25 12 29
REMARK H PARENT 34 32 14 33 32 35 35 37 16 42 29 48 19 53 21 56 21 57 21 58
REMARK H PARENT 23 60 23 61 23 62 27 64 27 65
REMARK Flexibility Score: inf
ROOT
ATOM      1  C   UNL     1     -46.715  36.034  27.071  1.00  0.00     0.117 C 
ATOM      2  H   UNL     1     -46.849  37.053  26.686  1.00  0.00     0.073 H 
ATOM      3  H   UNL     1     -47.736  35.694  27.279  1.00  0.00     0.073 H 
ENDROOT
BRANCH   1   4
ATOM      4  O   UNL     1     -46.178  35.148  26.090  1.00  0.00    -0.491 OA
BRANCH   4   5
ATOM      5  C   UNL     1     -46.893  34.036  25.742  1.00  0.00     0.121 A 
ATOM      6  C   UNL     1     -47.565  29.837  23.605  1.00  0.00     0.126 A 
ATOM      7  C   UNL     1     -48.861  29.739  24.095  1.00  0.00    -0.019 A 
ATOM      8  N   UNL     1     -46.785  30.904  23.877  1.00  0.00    -0.231 NA
ATOM      9  C   UNL     1     -49.364  30.753  24.905  1.00  0.00    -0.049 A 
ATOM     10  H   UNL     1     -49.482  28.887  23.841  1.00  0.00     0.066 H 
ATOM     11  C   UNL     1     -47.265  31.891  24.654  1.00  0.00     0.076 A 
ATOM     12  C   UNL     1     -48.561  31.857  25.201  1.00  0.00     0.001 A 
ATOM     13  H   UNL     1     -50.377  30.678  25.289  1.00  0.00     0.063 H 
ATOM     14  C   UNL     1     -46.454  32.986  24.934  1.00  0.00     0.007 A 
ATOM     15  C   UNL     1     -49.015  32.907  26.010  1.00  0.00    -0.049 A 
ATOM     16  H   UNL     1     -45.464  32.980  24.491  1.00  0.00     0.069 H 
ATOM     17  C   UNL     1     -48.179  33.989  26.278  1.00  0.00    -0.019 A 
ATOM     18  H   UNL     1     -50.017  32.892  26.434  1.00  0.00     0.063 H 
ATOM     19  H   UNL     1     -48.535  34.804  26.904  1.00  0.00     0.066 H 
BRANCH   6  20
ATOM     20  N   UNL     1     -47.099  28.807  22.767  1.00  0.00    -0.373 N 
ATOM     21  H   UNL     1     -47.792  28.065  22.740  1.00  0.00     0.161 HD
BRANCH  20  22
ATOM     22  C   UNL     1     -45.780  28.304  23.114  1.00  0.00     0.005 C 
ATOM     23  H   UNL     1     -45.669  28.174  24.197  1.00  0.00     0.045 H 
ATOM     24  H   UNL     1     -44.988  28.959  22.737  1.00  0.00     0.045 H 
ATOM     25  H   UNL     1     -45.640  27.323  22.647  1.00  0.00     0.045 H 
ENDBRANCH  20  22
ENDBRANCH   6  20
ENDBRANCH   4   5
ENDBRANCH   1   4
BRANCH   1  26
ATOM     26  C   UNL     1     -45.890  36.013  28.365  1.00  0.00     0.123 C 
ATOM     27  O   UNL     1     -44.768  36.907  28.216  1.00  0.00    -0.345 OA
ATOM     28  C   UNL     1     -46.678  36.474  29.596  1.00  0.00     0.119 C 
ATOM     29  H   UNL     1     -45.485  35.010  28.534  1.00  0.00     0.067 H 
ATOM     30  C   UNL     1     -44.955  38.009  29.139  1.00  0.00     0.169 C 
ATOM     31  C   UNL     1     -46.397  37.958  29.625  1.00  0.00     0.173 C 
ATOM     32  H   UNL     1     -47.747  36.248  29.541  1.00  0.00     0.066 H 
ATOM     33  H   UNL     1     -44.250  37.840  29.962  1.00  0.00     0.088 H 
ATOM     34  F   UNL     1     -47.236  38.569  28.742  1.00  0.00    -0.239 F 
ATOM     35  H   UNL     1     -46.528  38.425  30.605  1.00  0.00     0.074 H 
BRANCH  28  36
ATOM     36  O   UNL     1     -46.159  35.875  30.788  1.00  0.00    -0.387 OA
ATOM     37  H   UNL     1     -46.909  35.741  31.398  1.00  0.00     0.211 HD
ENDBRANCH  28  36
BRANCH  30  38
ATOM     38  N   UNL     1     -44.594  39.266  28.504  1.00  0.00    -0.302 N 
ATOM     39  C   UNL     1     -45.205  39.861  27.433  1.00  0.00     0.019 A 
ATOM     40  C   UNL     1     -43.546  40.048  28.925  1.00  0.00     0.148 A 
ATOM     41  C   UNL     1     -44.556  41.056  27.183  1.00  0.00     0.033 A 
ATOM     42  H   UNL     1     -46.055  39.410  26.938  1.00  0.00     0.083 H 
ATOM     43  C   UNL     1     -43.472  41.169  28.104  1.00  0.00     0.071 A 
ATOM     44  N   UNL     1     -42.737  39.752  29.957  1.00  0.00    -0.218 NA
ATOM     45  C   UNL     1     -42.414  42.054  28.366  1.00  0.00     0.137 A 
ATOM     46  C   UNL     1     -41.788  40.685  30.124  1.00  0.00     0.120 A 
ATOM     47  N   UNL     1     -41.579  41.794  29.393  1.00  0.00    -0.219 NA
ATOM     48  H   UNL     1     -41.098  40.523  30.945  1.00  0.00     0.106 H 
BRANCH  41  49
ATOM     49  C   UNL     1     -44.930  42.016  26.149  1.00  0.00     0.095 A 
ATOM     50  C   UNL     1     -44.231  42.225  24.942  1.00  0.00    -0.013 A 
ATOM     51  N   UNL     1     -45.968  42.847  26.273  1.00  0.00    -0.173 NA
ATOM     52  C   UNL     1     -44.916  43.235  24.297  1.00  0.00     0.036 A 
ATOM     53  H   UNL     1     -43.344  41.715  24.592  1.00  0.00     0.067 H 
ATOM     54  N   UNL     1     -45.944  43.572  25.140  1.00  0.00    -0.272 N 
BRANCH  52  55
ATOM     55  C   UNL     1     -44.671  43.892  22.991  1.00  0.00    -0.023 C 
ATOM     56  H   UNL     1     -44.532  43.149  22.199  1.00  0.00     0.030 H 
ATOM     57  H   UNL     1     -43.768  44.511  23.033  1.00  0.00     0.030 H 
ATOM     58  H   UNL     1     -45.517  44.527  22.712  1.00  0.00     0.030 H 
ENDBRANCH  52  55
BRANCH  54  59
ATOM     59  C   UNL     1     -46.943  44.594  24.932  1.00  0.00     0.030 C 
ATOM     60  H   UNL     1     -46.444  45.566  24.917  1.00  0.00     0.048 H 
ATOM     61  H   UNL     1     -47.673  44.564  25.745  1.00  0.00     0.048 H 
ATOM     62  H   UNL     1     -47.443  44.399  23.980  1.00  0.00     0.048 H 
ENDBRANCH  54  59
ENDBRANCH  41  49
BRANCH  45  63
ATOM     63  N   UNL     1     -42.121  43.183  27.609  1.00  0.00    -0.383 N 
ATOM     64  H   UNL     1     -41.506  42.997  26.825  1.00  0.00     0.158 HD
ATOM     65  H   UNL     1     -41.828  43.938  28.221  1.00  0.00     0.158 HD
ENDBRANCH  45  63
ENDBRANCH  30  38
ENDBRANCH   1  26
TORSDOF 11
ENDMDL
MODEL 2
REMARK VINA RESULT:      -9.0      1.799      2.376
REMARK SMILES CNc1ccc2ccc(OC[C@H]3O[C@@H](n4cc(-c5cc(C)n(C)n5)c5c(N)ncnc54)[C@@H](F)[C@@H]3O)cc2n1
REMARK SMILES IDX 11 1 10 4 9 5 3 6 4 7 38 8 5 9 37 11 6 12 36 14 7 15 8 17
REMARK SMILES IDX 2 20 1 22 12 26 13 27 34 28 14 30 32 31 33 34 35 36 15 38
REMARK SMILES IDX 16 39 31 40 17 41 25 43 30 44 26 45 29 46 28 47 18 49 19 50
REMARK SMILES IDX 24 51 20 52 22 54 21 55 23 59 27 63
REMARK H PARENT 11 2 11 3 4 10 5 13 36 16 7 18 8 19 2 21 1 23 1 24 1 25 12 29
REMARK H PARENT 34 32 14 33 32 35 35 37 16 42 29 48 19 53 21 56 21 57 21 58
REMARK H PARENT 23 60 23 61 23 62 27 64 27 65
REMARK Flexibility Score: inf
ROOT
ATOM      1  C   UNL     1     -46.044  34.715  27.795  1.00  0.00     0.117 C 
ATOM      2  H   UNL     1     -45.081  34.995  28.239  1.00  0.00     0.073 H 
ATOM      3  H   UNL     1     -45.941  34.997  26.741  1.00  0.00     0.073 H 
ENDROOT
BRANCH   1   4
ATOM      4  O   UNL     1     -46.268  33.306  27.825  1.00  0.00    -0.491 OA
BRANCH   4   5
ATOM      5  C   UNL     1     -46.700  32.681  26.688  1.00  0.00     0.121 A 
ATOM      6  C   UNL     1     -49.332  29.595  24.198  1.00  0.00     0.126 A 
ATOM      7  C   UNL     1     -48.762  30.002  22.998  1.00  0.00    -0.019 A 
ATOM      8  N   UNL     1     -48.961  30.138  25.377  1.00  0.00    -0.231 NA
ATOM      9  C   UNL     1     -47.801  31.008  23.004  1.00  0.00    -0.049 A 
ATOM     10  H   UNL     1     -49.053  29.533  22.064  1.00  0.00     0.066 H 
ATOM     11  C   UNL     1     -48.029  31.107  25.392  1.00  0.00     0.076 A 
ATOM     12  C   UNL     1     -47.417  31.584  24.217  1.00  0.00     0.001 A 
ATOM     13  H   UNL     1     -47.355  31.327  22.067  1.00  0.00     0.063 H 
ATOM     14  C   UNL     1     -47.654  31.665  26.609  1.00  0.00     0.007 A 
ATOM     15  C   UNL     1     -46.454  32.600  24.283  1.00  0.00    -0.049 A 
ATOM     16  H   UNL     1     -48.142  31.270  27.494  1.00  0.00     0.069 H 
ATOM     17  C   UNL     1     -46.102  33.144  25.517  1.00  0.00    -0.019 A 
ATOM     18  H   UNL     1     -45.973  32.972  23.382  1.00  0.00     0.063 H 
ATOM     19  H   UNL     1     -45.352  33.931  25.565  1.00  0.00     0.066 H 
BRANCH   6  20
ATOM     20  N   UNL     1     -50.280  28.557  24.158  1.00  0.00    -0.373 N 
ATOM     21  H   UNL     1     -51.212  28.959  24.206  1.00  0.00     0.161 HD
BRANCH  20  22
ATOM     22  C   UNL     1     -50.082  27.526  25.164  1.00  0.00     0.005 C 
ATOM     23  H   UNL     1     -50.381  26.539  24.795  1.00  0.00     0.045 H 
ATOM     24  H   UNL     1     -50.626  27.756  26.087  1.00  0.00     0.045 H 
ATOM     25  H   UNL     1     -49.018  27.476  25.418  1.00  0.00     0.045 H 
ENDBRANCH  20  22
ENDBRANCH   6  20
ENDBRANCH   4   5
ENDBRANCH   1   4
BRANCH   1  26
ATOM     26  C   UNL     1     -47.212  35.487  28.424  1.00  0.00     0.123 C 
ATOM     27  O   UNL     1     -46.703  36.699  29.016  1.00  0.00    -0.345 OA
ATOM     28  C   UNL     1     -48.288  35.892  27.410  1.00  0.00     0.119 C 
ATOM     29  H   UNL     1     -47.661  34.896  29.229  1.00  0.00     0.067 H 
ATOM     30  C   UNL     1     -47.239  37.817  28.264  1.00  0.00     0.169 C 
ATOM     31  C   UNL     1     -47.823  37.262  26.973  1.00  0.00     0.173 C 
ATOM     32  H   UNL     1     -48.389  35.193  26.575  1.00  0.00     0.066 H 
ATOM     33  H   UNL     1     -48.018  38.263  28.894  1.00  0.00     0.088 H 
ATOM     34  F   UNL     1     -46.857  37.101  26.024  1.00  0.00    -0.239 F 
ATOM     35  H   UNL     1     -48.610  37.897  26.558  1.00  0.00     0.074 H 
BRANCH  28  36
ATOM     36  O   UNL     1     -49.567  36.012  28.044  1.00  0.00    -0.387 OA
ATOM     37  H   UNL     1     -49.788  35.141  28.422  1.00  0.00     0.211 HD
ENDBRANCH  28  36
BRANCH  30  38
ATOM     38  N   UNL     1     -46.212  38.825  28.058  1.00  0.00    -0.302 N 
ATOM     39  C   UNL     1     -46.161  39.769  27.068  1.00  0.00     0.019 A 
ATOM     40  C   UNL     1     -45.116  38.960  28.875  1.00  0.00     0.148 A 
ATOM     41  C   UNL     1     -45.030  40.538  27.271  1.00  0.00     0.033 A 
ATOM     42  H   UNL     1     -46.927  39.839  26.307  1.00  0.00     0.083 H 
ATOM     43  C   UNL     1     -44.335  40.009  28.398  1.00  0.00     0.071 A 
ATOM     44  N   UNL     1     -44.860  38.189  29.946  1.00  0.00    -0.218 NA
ATOM     45  C   UNL     1     -43.138  40.249  29.093  1.00  0.00     0.137 A 
ATOM     46  C   UNL     1     -43.708  38.535  30.540  1.00  0.00     0.120 A 
ATOM     47  N   UNL     1     -42.844  39.498  30.174  1.00  0.00    -0.219 NA
ATOM     48  H   UNL     1     -43.434  37.964  31.421  1.00  0.00     0.106 H 
BRANCH  41  49
ATOM     49  C   UNL     1     -44.635  41.684  26.457  1.00  0.00     0.095 A 
ATOM     50  C   UNL     1     -44.355  41.643  25.076  1.00  0.00    -0.013 A 
ATOM     51  N   UNL     1     -44.446  42.904  26.968  1.00  0.00    -0.173 NA
ATOM     52  C   UNL     1     -43.996  42.933  24.741  1.00  0.00     0.036 A 
ATOM     53  H   UNL     1     -44.400  40.789  24.414  1.00  0.00     0.067 H 
ATOM     54  N   UNL     1     -44.064  43.645  25.912  1.00  0.00    -0.272 N 
BRANCH  52  55
ATOM     55  C   UNL     1     -43.594  43.521  23.441  1.00  0.00    -0.023 C 
ATOM     56  H   UNL     1     -43.692  44.611  23.458  1.00  0.00     0.030 H 
ATOM     57  H   UNL     1     -44.225  43.139  22.632  1.00  0.00     0.030 H 
ATOM     58  H   UNL     1     -42.551  43.281  23.214  1.00  0.00     0.030 H 
ENDBRANCH  52  55
BRANCH  54  59
ATOM     59  C   UNL     1     -43.765  45.045  26.100  1.00  0.00     0.030 C 
ATOM     60  H   UNL     1     -44.540  45.633  25.602  1.00  0.00     0.048 H 
ATOM     61  H   UNL     1     -42.789  45.273  25.665  1.00  0.00     0.048 H 
ATOM     62  H   UNL     1     -43.749  45.253  27.172  1.00  0.00     0.048 H 
ENDBRANCH  54  59
ENDBRANCH  41  49
BRANCH  45  63
ATOM     63  N   UNL     1     -42.186  41.193  28.726  1.00  0.00    -0.383 N 
ATOM     64  H   UNL     1     -41.280  40.792  28.511  1.00  0.00     0.158 HD
ATOM     65  H   UNL     1     -42.176  41.949  29.402  1.00  0.00     0.158 HD
ENDBRANCH  45  63
ENDBRANCH  30  38
ENDBRANCH   1  26
TORSDOF 11
ENDMDL
MODEL 3
REMARK VINA RESULT:      -8.7      4.604      8.300
REMARK SMILES CNc1ccc2ccc(OC[C@H]3O[C@@H](n4cc(-c5cc(C)n(C)n5)c5c(N)ncnc54)[C@@H](F)[C@@H]3O)cc2n1
REMARK SMILES IDX 11 1 10 4 9 5 3 6 4 7 38 8 5 9 37 11 6 12 36 14 7 15 8 17
REMARK SMILES IDX 2 20 1 22 12 26 13 27 34 28 14 30 32 31 33 34 35 36 15 38
REMARK SMILES IDX 16 39 31 40 17 41 25 43 30 44 26 45 29 46 28 47 18 49 19 50
REMARK SMILES IDX 24 51 20 52 22 54 21 55 23 59 27 63
REMARK H PARENT 11 2 11 3 4 10 5 13 36 16 7 18 8 19 2 21 1 23 1 24 1 25 12 29
REMARK H PARENT 34 32 14 33 32 35 35 37 16 42 29 48 19 53 21 56 21 57 21 58
REMARK H PARENT 23 60 23 61 23 62 27 64 27 65
REMARK Flexibility Score: inf
ROOT
ATOM      1  C   UNL     1     -44.642  38.205  28.271  1.00  0.00     0.117 C 
ATOM      2  H   UNL     1     -44.691  38.163  27.175  1.00  0.00     0.073 H 
ATOM      3  H   UNL     1     -43.742  37.629  28.516  1.00  0.00     0.073 H 
ENDROOT
BRANCH   1   4
ATOM      4  O   UNL     1     -44.429  39.529  28.757  1.00  0.00    -0.491 OA
BRANCH   4   5
ATOM      5  C   UNL     1     -43.895  40.465  27.916  1.00  0.00     0.121 A 
ATOM      6  C   UNL     1     -43.742  43.145  23.987  1.00  0.00     0.126 A 
ATOM      7  C   UNL     1     -42.562  43.758  24.391  1.00  0.00    -0.019 A 
ATOM      8  N   UNL     1     -44.339  42.196  24.737  1.00  0.00    -0.231 NA
ATOM      9  C   UNL     1     -41.990  43.402  25.609  1.00  0.00    -0.049 A 
ATOM     10  H   UNL     1     -42.083  44.498  23.759  1.00  0.00     0.066 H 
ATOM     11  C   UNL     1     -43.789  41.842  25.913  1.00  0.00     0.076 A 
ATOM     12  C   UNL     1     -42.605  42.428  26.398  1.00  0.00     0.001 A 
ATOM     13  H   UNL     1     -41.068  43.881  25.925  1.00  0.00     0.063 H 
ATOM     14  C   UNL     1     -44.411  40.866  26.683  1.00  0.00     0.007 A 
ATOM     15  C   UNL     1     -42.073  42.031  27.632  1.00  0.00    -0.049 A 
ATOM     16  H   UNL     1     -45.319  40.433  26.276  1.00  0.00     0.069 H 
ATOM     17  C   UNL     1     -42.721  41.053  28.385  1.00  0.00    -0.019 A 
ATOM     18  H   UNL     1     -41.156  42.474  28.013  1.00  0.00     0.063 H 
ATOM     19  H   UNL     1     -42.304  40.746  29.342  1.00  0.00     0.066 H 
BRANCH   6  20
ATOM     20  N   UNL     1     -44.277  43.509  22.738  1.00  0.00    -0.373 N 
ATOM     21  H   UNL     1     -44.053  42.786  22.060  1.00  0.00     0.161 HD
BRANCH  20  22
ATOM     22  C   UNL     1     -43.877  44.828  22.276  1.00  0.00     0.005 C 
ATOM     23  H   UNL     1     -43.386  44.782  21.298  1.00  0.00     0.045 H 
ATOM     24  H   UNL     1     -43.218  45.323  22.998  1.00  0.00     0.045 H 
ATOM     25  H   UNL     1     -44.769  45.454  22.169  1.00  0.00     0.045 H 
ENDBRANCH  20  22
ENDBRANCH   6  20
ENDBRANCH   4   5
ENDBRANCH   1   4
BRANCH   1  26
ATOM     26  C   UNL     1     -45.866  37.551  28.926  1.00  0.00     0.123 C 
ATOM     27  O   UNL     1     -46.833  38.577  29.230  1.00  0.00    -0.345 OA
ATOM     28  C   UNL     1     -46.561  36.523  28.026  1.00  0.00     0.119 C 
ATOM     29  H   UNL     1     -45.579  37.084  29.874  1.00  0.00     0.067 H 
ATOM     30  C   UNL     1     -47.994  38.354  28.391  1.00  0.00     0.169 C 
ATOM     31  C   UNL     1     -47.590  37.364  27.307  1.00  0.00     0.173 C 
ATOM     32  H   UNL     1     -45.881  36.010  27.341  1.00  0.00     0.066 H 
ATOM     33  H   UNL     1     -48.768  37.934  29.045  1.00  0.00     0.088 H 
ATOM     34  F   UNL     1     -46.974  37.996  26.268  1.00  0.00    -0.239 F 
ATOM     35  H   UNL     1     -48.440  36.801  26.911  1.00  0.00     0.074 H 
BRANCH  28  36
ATOM     36  O   UNL     1     -47.233  35.530  28.809  1.00  0.00    -0.387 OA
ATOM     37  H   UNL     1     -46.681  35.356  29.595  1.00  0.00     0.211 HD
ENDBRANCH  28  36
BRANCH  30  38
ATOM     38  N   UNL     1     -48.494  39.617  27.875  1.00  0.00    -0.302 N 
ATOM     39  C   UNL     1     -47.770  40.622  27.292  1.00  0.00     0.019 A 
ATOM     40  C   UNL     1     -49.821  39.971  27.910  1.00  0.00     0.148 A 
ATOM     41  C   UNL     1     -48.650  41.622  26.922  1.00  0.00     0.033 A 
ATOM     42  H   UNL     1     -46.697  40.553  27.168  1.00  0.00     0.083 H 
ATOM     43  C   UNL     1     -49.957  41.235  27.345  1.00  0.00     0.071 A 
ATOM     44  N   UNL     1     -50.804  39.208  28.418  1.00  0.00    -0.218 NA
ATOM     45  C   UNL     1     -51.254  41.775  27.349  1.00  0.00     0.137 A 
ATOM     46  C   UNL     1     -51.995  39.819  28.338  1.00  0.00     0.120 A 
ATOM     47  N   UNL     1     -52.268  41.041  27.850  1.00  0.00    -0.219 NA
ATOM     48  H   UNL     1     -52.845  39.262  28.721  1.00  0.00     0.106 H 
BRANCH  41  49
ATOM     49  C   UNL     1     -48.282  42.851  26.226  1.00  0.00     0.095 A 
ATOM     50  C   UNL     1     -47.076  43.558  26.406  1.00  0.00    -0.013 A 
ATOM     51  N   UNL     1     -49.098  43.468  25.367  1.00  0.00    -0.173 NA
ATOM     52  C   UNL     1     -47.174  44.659  25.580  1.00  0.00     0.036 A 
ATOM     53  H   UNL     1     -46.249  43.306  27.056  1.00  0.00     0.067 H 
ATOM     54  N   UNL     1     -48.406  44.557  24.985  1.00  0.00    -0.272 N 
BRANCH  52  55
ATOM     55  C   UNL     1     -46.227  45.771  25.329  1.00  0.00    -0.023 C 
ATOM     56  H   UNL     1     -45.197  45.403  25.278  1.00  0.00     0.030 H 
ATOM     57  H   UNL     1     -46.279  46.513  26.133  1.00  0.00     0.030 H 
ATOM     58  H   UNL     1     -46.454  46.267  24.380  1.00  0.00     0.030 H 
ENDBRANCH  52  55
BRANCH  54  59
ATOM     59  C   UNL     1     -48.998  45.477  24.041  1.00  0.00     0.030 C 
ATOM     60  H   UNL     1     -48.440  45.415  23.104  1.00  0.00     0.048 H 
ATOM     61  H   UNL     1     -48.945  46.493  24.438  1.00  0.00     0.048 H 
ATOM     62  H   UNL     1     -50.042  45.193  23.891  1.00  0.00     0.048 H 
ENDBRANCH  54  59
ENDBRANCH  41  49
BRANCH  45  63
ATOM     63  N   UNL     1     -51.581  43.052  26.908  1.00  0.00    -0.383 N 
ATOM     64  H   UNL     1     -52.424  43.423  27.331  1.00  0.00     0.158 HD
ATOM     65  H   UNL     1     -51.556  43.080  25.894  1.00  0.00     0.158 HD
ENDBRANCH  45  63
ENDBRANCH  30  38
ENDBRANCH   1  26
TORSDOF 11
ENDMDL
MODEL 4
REMARK VINA RESULT:      -8.7      2.317      3.210
REMARK SMILES CNc1ccc2ccc(OC[C@H]3O[C@@H](n4cc(-c5cc(C)n(C)n5)c5c(N)ncnc54)[C@@H](F)[C@@H]3O)cc2n1
REMARK SMILES IDX 11 1 10 4 9 5 3 6 4 7 38 8 5 9 37 11 6 12 36 14 7 15 8 17
REMARK SMILES IDX 2 20 1 22 12 26 13 27 34 28 14 30 32 31 33 34 35 36 15 38
REMARK SMILES IDX 16 39 31 40 17 41 25 43 30 44 26 45 29 46 28 47 18 49 19 50
REMARK SMILES IDX 24 51 20 52 22 54 21 55 23 59 27 63
REMARK H PARENT 11 2 11 3 4 10 5 13 36 16 7 18 8 19 2 21 1 23 1 24 1 25 12 29
REMARK H PARENT 34 32 14 33 32 35 35 37 16 42 29 48 19 53 21 56 21 57 21 58
REMARK H PARENT 23 60 23 61 23 62 27 64 27 65
REMARK Flexibility Score: inf
ROOT
ATOM      1  C   UNL     1     -46.175  35.282  26.507  1.00  0.00     0.117 C 
ATOM      2  H   UNL     1     -45.415  34.694  25.979  1.00  0.00     0.073 H 
ATOM      3  H   UNL     1     -46.294  36.178  25.886  1.00  0.00     0.073 H 
ENDROOT
BRANCH   1   4
ATOM      4  O   UNL     1     -47.445  34.631  26.537  1.00  0.00    -0.491 OA
BRANCH   4   5
ATOM      5  C   UNL     1     -47.620  33.490  25.807  1.00  0.00     0.121 A 
ATOM      6  C   UNL     1     -46.322  30.090  22.739  1.00  0.00     0.126 A 
ATOM      7  C   UNL     1     -47.535  29.428  22.883  1.00  0.00    -0.019 A 
ATOM      8  N   UNL     1     -46.058  31.235  23.403  1.00  0.00    -0.231 NA
ATOM      9  C   UNL     1     -48.496  29.943  23.748  1.00  0.00    -0.049 A 
ATOM     10  H   UNL     1     -47.739  28.525  22.319  1.00  0.00     0.066 H 
ATOM     11  C   UNL     1     -46.984  31.742  24.237  1.00  0.00     0.076 A 
ATOM     12  C   UNL     1     -48.230  31.122  24.448  1.00  0.00     0.001 A 
ATOM     13  H   UNL     1     -49.445  29.426  23.861  1.00  0.00     0.063 H 
ATOM     14  C   UNL     1     -46.704  32.920  24.921  1.00  0.00     0.007 A 
ATOM     15  C   UNL     1     -49.160  31.686  25.331  1.00  0.00    -0.049 A 
ATOM     16  H   UNL     1     -45.737  33.373  24.729  1.00  0.00     0.069 H 
ATOM     17  C   UNL     1     -48.851  32.864  26.006  1.00  0.00    -0.019 A 
ATOM     18  H   UNL     1     -50.127  31.216  25.497  1.00  0.00     0.063 H 
ATOM     19  H   UNL     1     -49.576  33.301  26.690  1.00  0.00     0.066 H 
BRANCH   6  20
ATOM     20  N   UNL     1     -45.385  29.557  21.836  1.00  0.00    -0.373 N 
ATOM     21  H   UNL     1     -45.878  29.195  21.025  1.00  0.00     0.161 HD
BRANCH  20  22
ATOM     22  C   UNL     1     -44.493  28.564  22.415  1.00  0.00     0.005 C 
ATOM     23  H   UNL     1     -44.080  28.902  23.372  1.00  0.00     0.045 H 
ATOM     24  H   UNL     1     -43.678  28.308  21.730  1.00  0.00     0.045 H 
ATOM     25  H   UNL     1     -45.059  27.646  22.605  1.00  0.00     0.045 H 
ENDBRANCH  20  22
ENDBRANCH   6  20
ENDBRANCH   4   5
ENDBRANCH   1   4
BRANCH   1  26
ATOM     26  C   UNL     1     -45.714  35.687  27.914  1.00  0.00     0.123 C 
ATOM     27  O   UNL     1     -45.355  37.083  27.902  1.00  0.00    -0.345 OA
ATOM     28  C   UNL     1     -46.796  35.504  28.984  1.00  0.00     0.119 C 
ATOM     29  H   UNL     1     -44.816  35.123  28.190  1.00  0.00     0.067 H 
ATOM     30  C   UNL     1     -46.308  37.792  28.734  1.00  0.00     0.169 C 
ATOM     31  C   UNL     1     -47.478  36.852  28.990  1.00  0.00     0.173 C 
ATOM     32  H   UNL     1     -47.486  34.682  28.774  1.00  0.00     0.066 H 
ATOM     33  H   UNL     1     -45.780  38.034  29.664  1.00  0.00     0.088 H 
ATOM     34  F   UNL     1     -48.370  36.884  27.960  1.00  0.00    -0.239 F 
ATOM     35  H   UNL     1     -48.012  37.086  29.915  1.00  0.00     0.074 H 
BRANCH  28  36
ATOM     36  O   UNL     1     -46.208  35.271  30.270  1.00  0.00    -0.387 OA
ATOM     37  H   UNL     1     -45.444  35.871  30.354  1.00  0.00     0.211 HD
ENDBRANCH  28  36
BRANCH  30  38
ATOM     38  N   UNL     1     -46.690  39.046  28.107  1.00  0.00    -0.302 N 
ATOM     39  C   UNL     1     -47.934  39.617  28.078  1.00  0.00     0.019 A 
ATOM     40  C   UNL     1     -45.802  39.853  27.435  1.00  0.00     0.148 A 
ATOM     41  C   UNL     1     -47.836  40.820  27.404  1.00  0.00     0.033 A 
ATOM     42  H   UNL     1     -48.788  39.144  28.545  1.00  0.00     0.083 H 
ATOM     43  C   UNL     1     -46.489  40.964  26.957  1.00  0.00     0.071 A 
ATOM     44  N   UNL     1     -44.495  39.585  27.277  1.00  0.00    -0.218 NA
ATOM     45  C   UNL     1     -45.735  41.872  26.195  1.00  0.00     0.137 A 
ATOM     46  C   UNL     1     -43.880  40.537  26.560  1.00  0.00     0.120 A 
ATOM     47  N   UNL     1     -44.418  41.640  26.012  1.00  0.00    -0.219 NA
ATOM     48  H   UNL     1     -42.816  40.398  26.394  1.00  0.00     0.106 H 
BRANCH  41  49
ATOM     49  C   UNL     1     -48.934  41.759  27.196  1.00  0.00     0.095 A 
ATOM     50  C   UNL     1     -49.737  42.310  28.215  1.00  0.00    -0.013 A 
ATOM     51  N   UNL     1     -49.326  42.157  25.982  1.00  0.00    -0.173 NA
ATOM     52  C   UNL     1     -50.655  43.107  27.561  1.00  0.00     0.036 A 
ATOM     53  H   UNL     1     -49.665  42.144  29.281  1.00  0.00     0.067 H 
ATOM     54  N   UNL     1     -50.365  42.975  26.227  1.00  0.00    -0.272 N 
BRANCH  52  55
ATOM     55  C   UNL     1     -51.758  43.946  28.086  1.00  0.00    -0.023 C 
ATOM     56  H   UNL     1     -51.590  44.200  29.138  1.00  0.00     0.030 H 
ATOM     57  H   UNL     1     -52.714  43.417  28.017  1.00  0.00     0.030 H 
ATOM     58  H   UNL     1     -51.836  44.882  27.523  1.00  0.00     0.030 H 
ENDBRANCH  52  55
BRANCH  54  59
ATOM     59  C   UNL     1     -51.052  43.598  25.119  1.00  0.00     0.030 C 
ATOM     60  H   UNL     1     -50.553  43.301  24.194  1.00  0.00     0.048 H 
ATOM     61  H   UNL     1     -51.014  44.684  25.229  1.00  0.00     0.048 H 
ATOM     62  H   UNL     1     -52.091  43.262  25.125  1.00  0.00     0.048 H 
ENDBRANCH  54  59
ENDBRANCH  41  49
BRANCH  45  63
ATOM     63  N   UNL     1     -46.252  42.996  25.562  1.00  0.00    -0.383 N 
ATOM     64  H   UNL     1     -47.182  42.855  25.182  1.00  0.00     0.158 HD
ATOM     65  H   UNL     1     -45.569  43.366  24.910  1.00  0.00     0.158 HD
ENDBRANCH  45  63
ENDBRANCH  30  38
ENDBRANCH   1  26
TORSDOF 11
ENDMDL
MODEL 5
REMARK VINA RESULT:      -8.7      4.081      7.269
REMARK SMILES CNc1ccc2ccc(OC[C@H]3O[C@@H](n4cc(-c5cc(C)n(C)n5)c5c(N)ncnc54)[C@@H](F)[C@@H]3O)cc2n1
REMARK SMILES IDX 11 1 10 4 9 5 3 6 4 7 38 8 5 9 37 11 6 12 36 14 7 15 8 17
REMARK SMILES IDX 2 20 1 22 12 26 13 27 34 28 14 30 32 31 33 34 35 36 15 38
REMARK SMILES IDX 16 39 31 40 17 41 25 43 30 44 26 45 29 46 28 47 18 49 19 50
REMARK SMILES IDX 24 51 20 52 22 54 21 55 23 59 27 63
REMARK H PARENT 11 2 11 3 4 10 5 13 36 16 7 18 8 19 2 21 1 23 1 24 1 25 12 29
REMARK H PARENT 34 32 14 33 32 35 35 37 16 42 29 48 19 53 21 56 21 57 21 58
REMARK H PARENT 23 60 23 61 23 62 27 64 27 65
REMARK Flexibility Score: inf
ROOT
ATOM      1  C   UNL     1     -48.597  37.237  27.818  1.00  0.00     0.117 C 
ATOM      2  H   UNL     1     -49.302  37.079  28.643  1.00  0.00     0.073 H 
ATOM      3  H   UNL     1     -49.138  36.875  26.935  1.00  0.00     0.073 H 
ENDROOT
BRANCH   1   4
ATOM      4  O   UNL     1     -48.321  38.618  27.593  1.00  0.00    -0.491 OA
BRANCH   4   5
ATOM      5  C   UNL     1     -49.118  39.557  28.185  1.00  0.00     0.121 A 
ATOM      6  C   UNL     1     -50.078  43.799  30.119  1.00  0.00     0.126 A 
ATOM      7  C   UNL     1     -51.406  43.453  30.338  1.00  0.00    -0.019 A 
ATOM      8  N   UNL     1     -49.207  42.936  29.556  1.00  0.00    -0.231 NA
ATOM      9  C   UNL     1     -51.858  42.195  29.951  1.00  0.00    -0.049 A 
ATOM     10  H   UNL     1     -52.083  44.151  30.819  1.00  0.00     0.066 H 
ATOM     11  C   UNL     1     -49.634  41.716  29.184  1.00  0.00     0.076 A 
ATOM     12  C   UNL     1     -50.967  41.298  29.359  1.00  0.00     0.001 A 
ATOM     13  H   UNL     1     -52.895  41.924  30.123  1.00  0.00     0.063 H 
ATOM     14  C   UNL     1     -48.732  40.832  28.601  1.00  0.00     0.007 A 
ATOM     15  C   UNL     1     -51.366  40.019  28.950  1.00  0.00    -0.049 A 
ATOM     16  H   UNL     1     -47.713  41.187  28.487  1.00  0.00     0.069 H 
ATOM     17  C   UNL     1     -50.441  39.156  28.364  1.00  0.00    -0.019 A 
ATOM     18  H   UNL     1     -52.392  39.685  29.085  1.00  0.00     0.063 H 
ATOM     19  H   UNL     1     -50.754  38.163  28.050  1.00  0.00     0.066 H 
BRANCH   6  20
ATOM     20  N   UNL     1     -49.649  45.068  30.547  1.00  0.00    -0.373 N 
ATOM     21  H   UNL     1     -49.723  45.721  29.772  1.00  0.00     0.161 HD
BRANCH  20  22
ATOM     22  C   UNL     1     -48.322  45.082  31.143  1.00  0.00     0.005 C 
ATOM     23  H   UNL     1     -47.820  44.115  31.032  1.00  0.00     0.045 H 
ATOM     24  H   UNL     1     -48.361  45.360  32.202  1.00  0.00     0.045 H 
ATOM     25  H   UNL     1     -47.712  45.834  30.632  1.00  0.00     0.045 H 
ENDBRANCH  20  22
ENDBRANCH   6  20
ENDBRANCH   4   5
ENDBRANCH   1   4
BRANCH   1  26
ATOM     26  C   UNL     1     -47.307  36.425  28.001  1.00  0.00     0.123 C 
ATOM     27  O   UNL     1     -46.231  37.103  27.322  1.00  0.00    -0.345 OA
ATOM     28  C   UNL     1     -46.892  36.267  29.468  1.00  0.00     0.119 C 
ATOM     29  H   UNL     1     -47.416  35.440  27.535  1.00  0.00     0.067 H 
ATOM     30  C   UNL     1     -45.295  37.565  28.328  1.00  0.00     0.169 C 
ATOM     31  C   UNL     1     -45.987  37.458  29.679  1.00  0.00     0.173 C 
ATOM     32  H   UNL     1     -47.737  36.249  30.162  1.00  0.00     0.066 H 
ATOM     33  H   UNL     1     -44.429  36.894  28.270  1.00  0.00     0.088 H 
ATOM     34  F   UNL     1     -46.768  38.549  29.920  1.00  0.00    -0.239 F 
ATOM     35  H   UNL     1     -45.282  37.350  30.508  1.00  0.00     0.074 H 
BRANCH  28  36
ATOM     36  O   UNL     1     -46.137  35.065  29.658  1.00  0.00    -0.387 OA
ATOM     37  H   UNL     1     -46.052  34.633  28.787  1.00  0.00     0.211 HD
ENDBRANCH  28  36
BRANCH  30  38
ATOM     38  N   UNL     1     -44.833  38.905  28.010  1.00  0.00    -0.302 N 
ATOM     39  C   UNL     1     -45.254  39.708  26.984  1.00  0.00     0.019 A 
ATOM     40  C   UNL     1     -43.871  39.562  28.738  1.00  0.00     0.148 A 
ATOM     41  C   UNL     1     -44.574  40.908  27.074  1.00  0.00     0.033 A 
ATOM     42  H   UNL     1     -46.008  39.383  26.279  1.00  0.00     0.083 H 
ATOM     43  C   UNL     1     -43.661  40.814  28.167  1.00  0.00     0.071 A 
ATOM     44  N   UNL     1     -43.248  39.055  29.816  1.00  0.00    -0.218 NA
ATOM     45  C   UNL     1     -42.662  41.602  28.763  1.00  0.00     0.137 A 
ATOM     46  C   UNL     1     -42.341  39.911  30.310  1.00  0.00     0.120 A 
ATOM     47  N   UNL     1     -42.013  41.130  29.846  1.00  0.00    -0.219 NA
ATOM     48  H   UNL     1     -41.799  39.578  31.189  1.00  0.00     0.106 H 
BRANCH  41  49
ATOM     49  C   UNL     1     -44.768  42.054  26.192  1.00  0.00     0.095 A 
ATOM     50  C   UNL     1     -44.437  42.092  24.822  1.00  0.00    -0.013 A 
ATOM     51  N   UNL     1     -45.243  43.227  26.622  1.00  0.00    -0.173 NA
ATOM     52  C   UNL     1     -44.759  43.368  24.406  1.00  0.00     0.036 A 
ATOM     53  H   UNL     1     -44.014  41.300  24.220  1.00  0.00     0.067 H 
ATOM     54  N   UNL     1     -45.233  44.005  25.525  1.00  0.00    -0.272 N 
BRANCH  52  55
ATOM     55  C   UNL     1     -44.643  44.013  23.077  1.00  0.00    -0.023 C 
ATOM     56  H   UNL     1     -45.276  44.903  23.018  1.00  0.00     0.030 H 
ATOM     57  H   UNL     1     -44.955  43.325  22.284  1.00  0.00     0.030 H 
ATOM     58  H   UNL     1     -43.611  44.321  22.885  1.00  0.00     0.030 H 
ENDBRANCH  52  55
BRANCH  54  59
ATOM     59  C   UNL     1     -45.689  45.373  25.623  1.00  0.00     0.030 C 
ATOM     60  H   UNL     1     -44.901  46.025  25.239  1.00  0.00     0.048 H 
ATOM     61  H   UNL     1     -45.896  45.615  26.668  1.00  0.00     0.048 H 
ATOM     62  H   UNL     1     -46.601  45.475  25.031  1.00  0.00     0.048 H 
ENDBRANCH  54  59
ENDBRANCH  41  49
BRANCH  45  63
ATOM     63  N   UNL     1     -42.247  42.842  28.292  1.00  0.00    -0.383 N 
ATOM     64  H   UNL     1     -42.414  43.600  28.944  1.00  0.00     0.158 HD
ATOM     65  H   UNL     1     -42.605  42.989  27.355  1.00  0.00     0.158 HD
ENDBRANCH  45  63
ENDBRANCH  30  38
ENDBRANCH   1  26
TORSDOF 11
ENDMDL
MODEL 6
REMARK VINA RESULT:      -8.6      3.200      6.208
REMARK SMILES CNc1ccc2ccc(OC[C@H]3O[C@@H](n4cc(-c5cc(C)n(C)n5)c5c(N)ncnc54)[C@@H](F)[C@@H]3O)cc2n1
REMARK SMILES IDX 11 1 10 4 9 5 3 6 4 7 38 8 5 9 37 11 6 12 36 14 7 15 8 17
REMARK SMILES IDX 2 20 1 22 12 26 13 27 34 28 14 30 32 31 33 34 35 36 15 38
REMARK SMILES IDX 16 39 31 40 17 41 25 43 30 44 26 45 29 46 28 47 18 49 19 50
REMARK SMILES IDX 24 51 20 52 22 54 21 55 23 59 27 63
REMARK H PARENT 11 2 11 3 4 10 5 13 36 16 7 18 8 19 2 21 1 23 1 24 1 25 12 29
REMARK H PARENT 34 32 14 33 32 35 35 37 16 42 29 48 19 53 21 56 21 57 21 58
REMARK H PARENT 23 60 23 61 23 62 27 64 27 65
REMARK Flexibility Score: inf
ROOT
ATOM      1  C   UNL     1     -43.862  40.345  28.242  1.00  0.00     0.117 C 
ATOM      2  H   UNL     1     -43.561  40.840  29.174  1.00  0.00     0.073 H 
ATOM      3  H   UNL     1     -43.664  39.284  28.432  1.00  0.00     0.073 H 
ENDROOT
BRANCH   1   4
ATOM      4  O   UNL     1     -45.261  40.464  27.989  1.00  0.00    -0.491 OA
BRANCH   4   5
ATOM      5  C   UNL     1     -45.999  39.328  27.806  1.00  0.00     0.121 A 
ATOM      6  C   UNL     1     -46.635  34.688  26.958  1.00  0.00     0.126 A 
ATOM      7  C   UNL     1     -48.016  34.809  27.056  1.00  0.00    -0.019 A 
ATOM      8  N   UNL     1     -45.820  35.754  27.105  1.00  0.00    -0.231 NA
ATOM      9  C   UNL     1     -48.575  36.053  27.333  1.00  0.00    -0.049 A 
ATOM     10  H   UNL     1     -48.655  33.946  26.906  1.00  0.00     0.066 H 
ATOM     11  C   UNL     1     -46.353  36.960  27.368  1.00  0.00     0.076 A 
ATOM     12  C   UNL     1     -47.740  37.160  27.497  1.00  0.00     0.001 A 
ATOM     13  H   UNL     1     -49.654  36.149  27.410  1.00  0.00     0.063 H 
ATOM     14  C   UNL     1     -45.507  38.053  27.522  1.00  0.00     0.007 A 
ATOM     15  C   UNL     1     -48.247  38.436  27.777  1.00  0.00    -0.049 A 
ATOM     16  H   UNL     1     -44.444  37.863  27.411  1.00  0.00     0.069 H 
ATOM     17  C   UNL     1     -47.376  39.512  27.932  1.00  0.00    -0.019 A 
ATOM     18  H   UNL     1     -49.318  38.601  27.875  1.00  0.00     0.063 H 
ATOM     19  H   UNL     1     -47.773  40.502  28.147  1.00  0.00     0.066 H 
BRANCH   6  20
ATOM     20  N   UNL     1     -46.106  33.422  26.649  1.00  0.00    -0.373 N 
ATOM     21  H   UNL     1     -45.129  33.397  26.926  1.00  0.00     0.161 HD
BRANCH  20  22
ATOM     22  C   UNL     1     -46.288  33.019  25.264  1.00  0.00     0.005 C 
ATOM     23  H   UNL     1     -47.009  32.199  25.174  1.00  0.00     0.045 H 
ATOM     24  H   UNL     1     -45.338  32.729  24.803  1.00  0.00     0.045 H 
ATOM     25  H   UNL     1     -46.679  33.869  24.695  1.00  0.00     0.045 H 
ENDBRANCH  20  22
ENDBRANCH   6  20
ENDBRANCH   4   5
ENDBRANCH   1   4
BRANCH   1  26
ATOM     26  C   UNL     1     -43.028  40.820  27.044  1.00  0.00     0.123 C 
ATOM     27  O   UNL     1     -43.922  41.228  25.988  1.00  0.00    -0.345 OA
ATOM     28  C   UNL     1     -42.128  42.018  27.367  1.00  0.00     0.119 C 
ATOM     29  H   UNL     1     -42.425  39.992  26.657  1.00  0.00     0.067 H 
ATOM     30  C   UNL     1     -43.772  42.659  25.811  1.00  0.00     0.169 C 
ATOM     31  C   UNL     1     -43.013  43.192  27.017  1.00  0.00     0.173 C 
ATOM     32  H   UNL     1     -41.785  42.041  28.405  1.00  0.00     0.066 H 
ATOM     33  H   UNL     1     -43.197  42.793  24.886  1.00  0.00     0.088 H 
ATOM     34  F   UNL     1     -43.852  43.421  28.066  1.00  0.00    -0.239 F 
ATOM     35  H   UNL     1     -42.472  44.118  26.801  1.00  0.00     0.074 H 
BRANCH  28  36
ATOM     36  O   UNL     1     -40.974  42.032  26.519  1.00  0.00    -0.387 OA
ATOM     37  H   UNL     1     -41.104  42.740  25.861  1.00  0.00     0.211 HD
ENDBRANCH  28  36
BRANCH  30  38
ATOM     38  N   UNL     1     -45.071  43.281  25.613  1.00  0.00    -0.302 N 
ATOM     39  C   UNL     1     -46.290  42.805  26.015  1.00  0.00     0.019 A 
ATOM     40  C   UNL     1     -45.239  44.483  24.970  1.00  0.00     0.148 A 
ATOM     41  C   UNL     1     -47.250  43.730  25.649  1.00  0.00     0.033 A 
ATOM     42  H   UNL     1     -46.390  41.863  26.538  1.00  0.00     0.083 H 
ATOM     43  C   UNL     1     -46.596  44.788  24.948  1.00  0.00     0.071 A 
ATOM     44  N   UNL     1     -44.241  45.219  24.451  1.00  0.00    -0.218 NA
ATOM     45  C   UNL     1     -46.951  45.969  24.275  1.00  0.00     0.137 A 
ATOM     46  C   UNL     1     -44.703  46.333  23.863  1.00  0.00     0.120 A 
ATOM     47  N   UNL     1     -45.980  46.736  23.740  1.00  0.00    -0.219 NA
ATOM     48  H   UNL     1     -43.956  46.988  23.426  1.00  0.00     0.106 H 
BRANCH  41  49
ATOM     49  C   UNL     1     -48.677  43.621  25.936  1.00  0.00     0.095 A 
ATOM     50  C   UNL     1     -49.240  43.492  27.222  1.00  0.00    -0.013 A 
ATOM     51  N   UNL     1     -49.607  43.579  24.978  1.00  0.00    -0.173 NA
ATOM     52  C   UNL     1     -50.600  43.389  27.013  1.00  0.00     0.036 A 
ATOM     53  H   UNL     1     -48.725  43.469  28.173  1.00  0.00     0.067 H 
ATOM     54  N   UNL     1     -50.763  43.442  25.652  1.00  0.00    -0.272 N 
BRANCH  52  55
ATOM     55  C   UNL     1     -51.720  43.234  27.972  1.00  0.00    -0.023 C 
ATOM     56  H   UNL     1     -52.622  42.878  27.466  1.00  0.00     0.030 H 
ATOM     57  H   UNL     1     -51.956  44.191  28.449  1.00  0.00     0.030 H 
ATOM     58  H   UNL     1     -51.465  42.510  28.752  1.00  0.00     0.030 H 
ENDBRANCH  52  55
BRANCH  54  59
ATOM     59  C   UNL     1     -52.005  43.358  24.918  1.00  0.00     0.030 C 
ATOM     60  H   UNL     1     -52.248  42.303  24.775  1.00  0.00     0.048 H 
ATOM     61  H   UNL     1     -51.891  43.848  23.948  1.00  0.00     0.048 H 
ATOM     62  H   UNL     1     -52.783  43.861  25.497  1.00  0.00     0.048 H 
ENDBRANCH  54  59
ENDBRANCH  41  49
BRANCH  45  63
ATOM     63  N   UNL     1     -48.256  46.403  24.073  1.00  0.00    -0.383 N 
ATOM     64  H   UNL     1     -48.728  45.927  23.312  1.00  0.00     0.158 HD
ATOM     65  H   UNL     1     -48.277  47.416  24.029  1.00  0.00     0.158 HD
ENDBRANCH  45  63
ENDBRANCH  30  38
ENDBRANCH   1  26
TORSDOF 11
ENDMDL
