MODEL 1
REMARK VINA RESULT:     -10.2      0.000      0.000
REMARK SMILES CNc1ccc2ccc(OCc3cncc(-n4cc(CC5CC5)c5c(N)ncnc54)c3)cc2n1
REMARK SMILES IDX 11 1 10 4 9 5 3 6 4 7 34 8 5 9 33 11 6 12 32 14 7 15 8 17
REMARK SMILES IDX 2 20 1 22 12 26 13 27 31 28 14 29 16 31 15 33 17 35 18 36
REMARK SMILES IDX 30 37 19 38 24 40 29 41 25 42 28 43 27 44 20 46 21 49 22 50
REMARK SMILES IDX 23 51 26 57
REMARK H PARENT 11 2 11 3 4 10 5 13 32 16 7 18 8 19 2 21 1 23 1 24 1 25 13 30
REMARK H PARENT 31 32 15 34 18 39 28 45 20 47 20 48 21 52 22 53 22 54 23 55
REMARK H PARENT 23 56 26 58 26 59
REMARK Flexibility Score: inf
ROOT
ATOM      1  C   UNL     1     -48.760  35.149  26.978  1.00  0.00     0.115 C 
ATOM      2  H   UNL     1     -48.807  36.096  26.426  1.00  0.00     0.076 H 
ATOM      3  H   UNL     1     -49.793  34.793  27.066  1.00  0.00     0.076 H 
ENDROOT
BRANCH   1   4
ATOM      4  O   UNL     1     -48.297  35.366  28.315  1.00  0.00    -0.489 OA
BRANCH   4   5
ATOM      5  C   UNL     1     -47.283  36.260  28.525  1.00  0.00     0.122 A 
ATOM      6  C   UNL     1     -45.270  40.192  26.751  1.00  0.00     0.126 A 
ATOM      7  C   UNL     1     -44.346  40.252  27.785  1.00  0.00    -0.019 A 
ATOM      8  N   UNL     1     -46.207  39.229  26.678  1.00  0.00    -0.231 NA
ATOM      9  C   UNL     1     -44.375  39.273  28.772  1.00  0.00    -0.049 A 
ATOM     10  H   UNL     1     -43.625  41.060  27.838  1.00  0.00     0.066 H 
ATOM     11  C   UNL     1     -46.240  38.279  27.631  1.00  0.00     0.076 A 
ATOM     12  C   UNL     1     -45.333  38.258  28.707  1.00  0.00     0.001 A 
ATOM     13  H   UNL     1     -43.658  39.315  29.586  1.00  0.00     0.063 H 
ATOM     14  C   UNL     1     -47.198  37.276  27.566  1.00  0.00     0.007 A 
ATOM     15  C   UNL     1     -45.409  37.247  29.678  1.00  0.00    -0.049 A 
ATOM     16  H   UNL     1     -47.905  37.289  26.739  1.00  0.00     0.069 H 
ATOM     17  C   UNL     1     -46.384  36.250  29.587  1.00  0.00    -0.019 A 
ATOM     18  H   UNL     1     -44.716  37.232  30.516  1.00  0.00     0.063 H 
ATOM     19  H   UNL     1     -46.416  35.500  30.368  1.00  0.00     0.066 H 
BRANCH   6  20
ATOM     20  N   UNL     1     -45.312  41.148  25.735  1.00  0.00    -0.373 N 
ATOM     21  H   UNL     1     -44.339  41.437  25.636  1.00  0.00     0.161 HD
BRANCH  20  22
ATOM     22  C   UNL     1     -46.171  42.283  26.024  1.00  0.00     0.005 C 
ATOM     23  H   UNL     1     -46.518  42.214  27.061  1.00  0.00     0.045 H 
ATOM     24  H   UNL     1     -47.055  42.295  25.377  1.00  0.00     0.045 H 
ATOM     25  H   UNL     1     -45.636  43.234  25.924  1.00  0.00     0.045 H 
ENDBRANCH  20  22
ENDBRANCH   6  20
ENDBRANCH   4   5
ENDBRANCH   1   4
BRANCH   1  26
ATOM     26  C   UNL     1     -47.981  34.096  26.234  1.00  0.00     0.010 A 
ATOM     27  C   UNL     1     -46.681  34.359  25.825  1.00  0.00     0.034 A 
ATOM     28  C   UNL     1     -48.531  32.855  25.877  1.00  0.00    -0.028 A 
ATOM     29  N   UNL     1     -45.918  33.485  25.138  1.00  0.00    -0.262 NA
ATOM     30  H   UNL     1     -46.196  35.306  26.044  1.00  0.00     0.084 H 
ATOM     31  C   UNL     1     -47.771  31.915  25.166  1.00  0.00     0.066 A 
ATOM     32  H   UNL     1     -49.561  32.661  26.159  1.00  0.00     0.065 H 
ATOM     33  C   UNL     1     -46.476  32.287  24.825  1.00  0.00     0.051 A 
ATOM     34  H   UNL     1     -45.788  31.638  24.294  1.00  0.00     0.086 H 
BRANCH  31  35
ATOM     35  N   UNL     1     -48.312  30.635  24.820  1.00  0.00    -0.299 N 
ATOM     36  C   UNL     1     -48.647  29.645  25.729  1.00  0.00     0.015 A 
ATOM     37  C   UNL     1     -48.597  30.135  23.549  1.00  0.00     0.150 A 
ATOM     38  C   UNL     1     -49.131  28.531  25.068  1.00  0.00    -0.016 A 
ATOM     39  H   UNL     1     -48.496  29.776  26.791  1.00  0.00     0.083 H 
ATOM     40  C   UNL     1     -49.115  28.846  23.677  1.00  0.00     0.065 A 
ATOM     41  N   UNL     1     -48.427  30.785  22.380  1.00  0.00    -0.218 NA
ATOM     42  C   UNL     1     -49.474  28.188  22.486  1.00  0.00     0.136 A 
ATOM     43  C   UNL     1     -48.796  30.057  21.319  1.00  0.00     0.120 A 
ATOM     44  N   UNL     1     -49.305  28.816  21.309  1.00  0.00    -0.219 NA
ATOM     45  H   UNL     1     -48.673  30.527  20.349  1.00  0.00     0.106 H 
BRANCH  38  46
ATOM     46  C   UNL     1     -49.568  27.257  25.723  1.00  0.00    -0.023 C 
ATOM     47  H   UNL     1     -49.672  27.410  26.803  1.00  0.00     0.032 H 
ATOM     48  H   UNL     1     -50.577  27.006  25.366  1.00  0.00     0.032 H 
BRANCH  46  49
ATOM     49  C   UNL     1     -48.635  26.103  25.480  1.00  0.00    -0.037 C 
ATOM     50  C   UNL     1     -47.159  26.253  25.747  1.00  0.00    -0.050 C 
ATOM     51  C   UNL     1     -47.997  25.376  26.637  1.00  0.00    -0.050 C 
ATOM     52  H   UNL     1     -48.924  25.512  24.618  1.00  0.00     0.031 H 
ATOM     53  H   UNL     1     -46.467  25.770  25.067  1.00  0.00     0.027 H 
ATOM     54  H   UNL     1     -46.795  27.189  26.158  1.00  0.00     0.027 H 
ATOM     55  H   UNL     1     -47.874  24.303  26.555  1.00  0.00     0.027 H 
ATOM     56  H   UNL     1     -48.199  25.722  27.645  1.00  0.00     0.027 H 
ENDBRANCH  46  49
ENDBRANCH  38  46
BRANCH  42  57
ATOM     57  N   UNL     1     -50.025  26.915  22.426  1.00  0.00    -0.383 N 
ATOM     58  H   UNL     1     -50.697  26.713  23.152  1.00  0.00     0.158 HD
ATOM     59  H   UNL     1     -50.334  26.720  21.479  1.00  0.00     0.158 HD
ENDBRANCH  42  57
ENDBRANCH  31  35
ENDBRANCH   1  26
TORSDOF 9
ENDMDL
MODEL 2
REMARK VINA RESULT:      -9.9      1.961     11.517
REMARK SMILES CNc1ccc2ccc(OCc3cncc(-n4cc(CC5CC5)c5c(N)ncnc54)c3)cc2n1
REMARK SMILES IDX 11 1 10 4 9 5 3 6 4 7 34 8 5 9 33 11 6 12 32 14 7 15 8 17
REMARK SMILES IDX 2 20 1 22 12 26 13 27 31 28 14 29 16 31 15 33 17 35 18 36
REMARK SMILES IDX 30 37 19 38 24 40 29 41 25 42 28 43 27 44 20 46 21 49 22 50
REMARK SMILES IDX 23 51 26 57
REMARK H PARENT 11 2 11 3 4 10 5 13 32 16 7 18 8 19 2 21 1 23 1 24 1 25 13 30
REMARK H PARENT 31 32 15 34 18 39 28 45 20 47 20 48 21 52 22 53 22 54 23 55
REMARK H PARENT 23 56 26 58 26 59
REMARK Flexibility Score: inf
ROOT
ATOM      1  C   UNL     1     -48.673  36.098  27.310  1.00  0.00     0.115 C 
ATOM      2  H   UNL     1     -49.619  36.544  27.640  1.00  0.00     0.076 H 
ATOM      3  H   UNL     1     -48.587  36.319  26.239  1.00  0.00     0.076 H 
ENDROOT
BRANCH   1   4
ATOM      4  O   UNL     1     -48.720  34.672  27.421  1.00  0.00    -0.489 OA
BRANCH   4   5
ATOM      5  C   UNL     1     -48.045  33.916  26.504  1.00  0.00     0.122 A 
ATOM      6  C   UNL     1     -48.137  29.727  24.243  1.00  0.00     0.126 A 
ATOM      7  C   UNL     1     -46.997  30.033  23.514  1.00  0.00    -0.019 A 
ATOM      8  N   UNL     1     -48.676  30.584  25.130  1.00  0.00    -0.231 NA
ATOM      9  C   UNL     1     -46.375  31.260  23.719  1.00  0.00    -0.049 A 
ATOM     10  H   UNL     1     -46.605  29.339  22.779  1.00  0.00     0.066 H 
ATOM     11  C   UNL     1     -48.079  31.774  25.332  1.00  0.00     0.076 A 
ATOM     12  C   UNL     1     -46.913  32.159  24.645  1.00  0.00     0.001 A 
ATOM     13  H   UNL     1     -45.484  31.508  23.149  1.00  0.00     0.063 H 
ATOM     14  C   UNL     1     -48.621  32.665  26.248  1.00  0.00     0.007 A 
ATOM     15  C   UNL     1     -46.328  33.411  24.888  1.00  0.00    -0.049 A 
ATOM     16  H   UNL     1     -49.524  32.376  26.779  1.00  0.00     0.069 H 
ATOM     17  C   UNL     1     -46.895  34.288  25.815  1.00  0.00    -0.019 A 
ATOM     18  H   UNL     1     -45.432  33.716  24.352  1.00  0.00     0.063 H 
ATOM     19  H   UNL     1     -46.419  35.252  25.958  1.00  0.00     0.066 H 
BRANCH   6  20
ATOM     20  N   UNL     1     -48.824  28.523  24.079  1.00  0.00    -0.373 N 
ATOM     21  H   UNL     1     -49.762  28.816  23.808  1.00  0.00     0.161 HD
BRANCH  20  22
ATOM     22  C   UNL     1     -48.856  27.692  25.271  1.00  0.00     0.005 C 
ATOM     23  H   UNL     1     -48.834  28.337  26.156  1.00  0.00     0.045 H 
ATOM     24  H   UNL     1     -47.987  27.026  25.322  1.00  0.00     0.045 H 
ATOM     25  H   UNL     1     -49.773  27.097  25.326  1.00  0.00     0.045 H 
ENDBRANCH  20  22
ENDBRANCH   6  20
ENDBRANCH   4   5
ENDBRANCH   1   4
BRANCH   1  26
ATOM     26  C   UNL     1     -47.482  36.718  27.995  1.00  0.00     0.010 A 
ATOM     27  C   UNL     1     -47.044  36.209  29.210  1.00  0.00     0.034 A 
ATOM     28  C   UNL     1     -46.811  37.839  27.485  1.00  0.00    -0.028 A 
ATOM     29  N   UNL     1     -46.002  36.712  29.903  1.00  0.00    -0.262 NA
ATOM     30  H   UNL     1     -47.528  35.358  29.679  1.00  0.00     0.084 H 
ATOM     31  C   UNL     1     -45.719  38.391  28.171  1.00  0.00     0.066 A 
ATOM     32  H   UNL     1     -47.176  38.264  26.555  1.00  0.00     0.065 H 
ATOM     33  C   UNL     1     -45.364  37.787  29.371  1.00  0.00     0.051 A 
ATOM     34  H   UNL     1     -44.527  38.111  29.979  1.00  0.00     0.086 H 
BRANCH  31  35
ATOM     35  N   UNL     1     -45.009  39.518  27.646  1.00  0.00    -0.299 N 
ATOM     36  C   UNL     1     -45.300  40.150  26.448  1.00  0.00     0.015 A 
ATOM     37  C   UNL     1     -43.917  40.184  28.204  1.00  0.00     0.150 A 
ATOM     38  C   UNL     1     -44.419  41.194  26.230  1.00  0.00    -0.016 A 
ATOM     39  H   UNL     1     -46.097  39.807  25.804  1.00  0.00     0.083 H 
ATOM     40  C   UNL     1     -43.544  41.228  27.357  1.00  0.00     0.065 A 
ATOM     41  N   UNL     1     -43.321  39.894  29.378  1.00  0.00    -0.218 NA
ATOM     42  C   UNL     1     -42.459  42.022  27.772  1.00  0.00     0.136 A 
ATOM     43  C   UNL     1     -42.299  40.711  29.661  1.00  0.00     0.120 A 
ATOM     44  N   UNL     1     -41.846  41.744  28.936  1.00  0.00    -0.219 NA
ATOM     45  H   UNL     1     -41.776  40.518  30.592  1.00  0.00     0.106 H 
BRANCH  38  46
ATOM     46  C   UNL     1     -44.413  42.086  25.028  1.00  0.00    -0.023 C 
ATOM     47  H   UNL     1     -43.410  42.501  24.878  1.00  0.00     0.032 H 
ATOM     48  H   UNL     1     -44.611  41.475  24.136  1.00  0.00     0.032 H 
BRANCH  46  49
ATOM     49  C   UNL     1     -45.402  43.215  25.108  1.00  0.00    -0.037 C 
ATOM     50  C   UNL     1     -45.364  44.174  26.270  1.00  0.00    -0.050 C 
ATOM     51  C   UNL     1     -44.958  44.641  24.899  1.00  0.00    -0.050 C 
ATOM     52  H   UNL     1     -46.381  42.936  24.730  1.00  0.00     0.031 H 
ATOM     53  H   UNL     1     -46.307  44.531  26.668  1.00  0.00     0.027 H 
ATOM     54  H   UNL     1     -44.585  44.061  27.016  1.00  0.00     0.027 H 
ATOM     55  H   UNL     1     -45.629  45.307  24.369  1.00  0.00     0.027 H 
ATOM     56  H   UNL     1     -43.907  44.839  24.720  1.00  0.00     0.027 H 
ENDBRANCH  46  49
ENDBRANCH  38  46
BRANCH  42  57
ATOM     57  N   UNL     1     -41.969  43.114  27.069  1.00  0.00    -0.383 N 
ATOM     58  H   UNL     1     -42.029  43.029  26.064  1.00  0.00     0.158 HD
ATOM     59  H   UNL     1     -42.348  43.970  27.458  1.00  0.00     0.158 HD
ENDBRANCH  42  57
ENDBRANCH  31  35
ENDBRANCH   1  26
TORSDOF 9
ENDMDL
MODEL 3
REMARK VINA RESULT:      -9.8      2.557     11.531
REMARK SMILES CNc1ccc2ccc(OCc3cncc(-n4cc(CC5CC5)c5c(N)ncnc54)c3)cc2n1
REMARK SMILES IDX 11 1 10 4 9 5 3 6 4 7 34 8 5 9 33 11 6 12 32 14 7 15 8 17
REMARK SMILES IDX 2 20 1 22 12 26 13 27 31 28 14 29 16 31 15 33 17 35 18 36
REMARK SMILES IDX 30 37 19 38 24 40 29 41 25 42 28 43 27 44 20 46 21 49 22 50
REMARK SMILES IDX 23 51 26 57
REMARK H PARENT 11 2 11 3 4 10 5 13 32 16 7 18 8 19 2 21 1 23 1 24 1 25 13 30
REMARK H PARENT 31 32 15 34 18 39 28 45 20 47 20 48 21 52 22 53 22 54 23 55
REMARK H PARENT 23 56 26 58 26 59
REMARK Flexibility Score: inf
ROOT
ATOM      1  C   UNL     1     -47.341  34.988  27.003  1.00  0.00     0.115 C 
ATOM      2  H   UNL     1     -48.404  34.860  27.244  1.00  0.00     0.076 H 
ATOM      3  H   UNL     1     -47.304  35.397  25.986  1.00  0.00     0.076 H 
ENDROOT
BRANCH   1   4
ATOM      4  O   UNL     1     -46.679  33.720  26.948  1.00  0.00    -0.489 OA
BRANCH   4   5
ATOM      5  C   UNL     1     -47.156  32.764  26.094  1.00  0.00     0.122 A 
ATOM      6  C   UNL     1     -46.524  30.901  21.758  1.00  0.00     0.126 A 
ATOM      7  C   UNL     1     -47.528  29.963  21.955  1.00  0.00    -0.019 A 
ATOM      8  N   UNL     1     -46.180  31.796  22.704  1.00  0.00    -0.231 NA
ATOM      9  C   UNL     1     -48.218  29.957  23.163  1.00  0.00    -0.049 A 
ATOM     10  H   UNL     1     -47.760  29.231  21.191  1.00  0.00     0.066 H 
ATOM     11  C   UNL     1     -46.843  31.794  23.875  1.00  0.00     0.076 A 
ATOM     12  C   UNL     1     -47.882  30.886  24.152  1.00  0.00     0.001 A 
ATOM     13  H   UNL     1     -49.002  29.224  23.326  1.00  0.00     0.063 H 
ATOM     14  C   UNL     1     -46.502  32.714  24.857  1.00  0.00     0.007 A 
ATOM     15  C   UNL     1     -48.543  30.922  25.390  1.00  0.00    -0.049 A 
ATOM     16  H   UNL     1     -45.698  33.416  24.651  1.00  0.00     0.069 H 
ATOM     17  C   UNL     1     -48.179  31.859  26.359  1.00  0.00    -0.019 A 
ATOM     18  H   UNL     1     -49.340  30.216  25.611  1.00  0.00     0.063 H 
ATOM     19  H   UNL     1     -48.705  31.838  27.307  1.00  0.00     0.066 H 
BRANCH   6  20
ATOM     20  N   UNL     1     -45.779  30.957  20.579  1.00  0.00    -0.373 N 
ATOM     21  H   UNL     1     -44.843  31.204  20.898  1.00  0.00     0.161 HD
BRANCH  20  22
ATOM     22  C   UNL     1     -46.276  31.919  19.610  1.00  0.00     0.005 C 
ATOM     23  H   UNL     1     -47.178  31.517  19.138  1.00  0.00     0.045 H 
ATOM     24  H   UNL     1     -45.542  32.110  18.820  1.00  0.00     0.045 H 
ATOM     25  H   UNL     1     -46.552  32.867  20.084  1.00  0.00     0.045 H 
ENDBRANCH  20  22
ENDBRANCH   6  20
ENDBRANCH   4   5
ENDBRANCH   1   4
BRANCH   1  26
ATOM     26  C   UNL     1     -46.667  35.981  27.913  1.00  0.00     0.010 A 
ATOM     27  C   UNL     1     -46.617  35.742  29.280  1.00  0.00     0.034 A 
ATOM     28  C   UNL     1     -46.121  37.188  27.450  1.00  0.00    -0.028 A 
ATOM     29  N   UNL     1     -46.054  36.583  30.170  1.00  0.00    -0.262 NA
ATOM     30  H   UNL     1     -47.040  34.841  29.716  1.00  0.00     0.084 H 
ATOM     31  C   UNL     1     -45.521  38.090  28.341  1.00  0.00     0.066 A 
ATOM     32  H   UNL     1     -46.194  37.398  26.387  1.00  0.00     0.065 H 
ATOM     33  C   UNL     1     -45.519  37.734  29.684  1.00  0.00     0.051 A 
ATOM     34  H   UNL     1     -45.068  38.339  30.462  1.00  0.00     0.086 H 
BRANCH  31  35
ATOM     35  N   UNL     1     -44.936  39.311  27.876  1.00  0.00    -0.299 N 
ATOM     36  C   UNL     1     -45.323  39.990  26.732  1.00  0.00     0.015 A 
ATOM     37  C   UNL     1     -43.893  40.040  28.449  1.00  0.00     0.150 A 
ATOM     38  C   UNL     1     -44.551  41.124  26.563  1.00  0.00    -0.016 A 
ATOM     39  H   UNL     1     -46.105  39.615  26.087  1.00  0.00     0.083 H 
ATOM     40  C   UNL     1     -43.647  41.167  27.665  1.00  0.00     0.065 A 
ATOM     41  N   UNL     1     -43.235  39.731  29.585  1.00  0.00    -0.218 NA
ATOM     42  C   UNL     1     -42.627  42.031  28.105  1.00  0.00     0.136 A 
ATOM     43  C   UNL     1     -42.285  40.621  29.896  1.00  0.00     0.120 A 
ATOM     44  N   UNL     1     -41.953  41.737  29.231  1.00  0.00    -0.219 NA
ATOM     45  H   UNL     1     -41.716  40.418  30.797  1.00  0.00     0.106 H 
BRANCH  38  46
ATOM     46  C   UNL     1     -44.667  42.089  25.424  1.00  0.00    -0.023 C 
ATOM     47  H   UNL     1     -43.668  42.381  25.080  1.00  0.00     0.032 H 
ATOM     48  H   UNL     1     -45.129  41.574  24.571  1.00  0.00     0.032 H 
BRANCH  46  49
ATOM     49  C   UNL     1     -45.449  43.329  25.761  1.00  0.00    -0.037 C 
ATOM     50  C   UNL     1     -44.866  44.691  25.481  1.00  0.00    -0.050 C 
ATOM     51  C   UNL     1     -46.028  44.191  24.667  1.00  0.00    -0.050 C 
ATOM     52  H   UNL     1     -46.031  43.217  26.670  1.00  0.00     0.031 H 
ATOM     53  H   UNL     1     -45.053  45.482  26.199  1.00  0.00     0.027 H 
ATOM     54  H   UNL     1     -43.899  44.756  24.995  1.00  0.00     0.027 H 
ATOM     55  H   UNL     1     -46.999  44.640  24.838  1.00  0.00     0.027 H 
ATOM     56  H   UNL     1     -45.844  43.917  23.634  1.00  0.00     0.027 H 
ENDBRANCH  46  49
ENDBRANCH  38  46
BRANCH  42  57
ATOM     57  N   UNL     1     -42.263  43.209  27.465  1.00  0.00    -0.383 N 
ATOM     58  H   UNL     1     -42.900  43.507  26.740  1.00  0.00     0.158 HD
ATOM     59  H   UNL     1     -42.026  43.914  28.155  1.00  0.00     0.158 HD
ENDBRANCH  42  57
ENDBRANCH  31  35
ENDBRANCH   1  26
TORSDOF 9
ENDMDL
MODEL 4
REMARK VINA RESULT:      -9.4      1.887      2.742
REMARK SMILES CNc1ccc2ccc(OCc3cncc(-n4cc(CC5CC5)c5c(N)ncnc54)c3)cc2n1
REMARK SMILES IDX 11 1 10 4 9 5 3 6 4 7 34 8 5 9 33 11 6 12 32 14 7 15 8 17
REMARK SMILES IDX 2 20 1 22 12 26 13 27 31 28 14 29 16 31 15 33 17 35 18 36
REMARK SMILES IDX 30 37 19 38 24 40 29 41 25 42 28 43 27 44 20 46 21 49 22 50
REMARK SMILES IDX 23 51 26 57
REMARK H PARENT 11 2 11 3 4 10 5 13 32 16 7 18 8 19 2 21 1 23 1 24 1 25 13 30
REMARK H PARENT 31 32 15 34 18 39 28 45 20 47 20 48 21 52 22 53 22 54 23 55
REMARK H PARENT 23 56 26 58 26 59
REMARK Flexibility Score: inf
ROOT
ATOM      1  C   UNL     1     -45.965  35.552  27.155  1.00  0.00     0.115 C 
ATOM      2  H   UNL     1     -45.157  34.943  27.580  1.00  0.00     0.076 H 
ATOM      3  H   UNL     1     -45.567  35.987  26.230  1.00  0.00     0.076 H 
ENDROOT
BRANCH   1   4
ATOM      4  O   UNL     1     -46.273  36.654  28.014  1.00  0.00    -0.489 OA
BRANCH   4   5
ATOM      5  C   UNL     1     -46.149  37.925  27.526  1.00  0.00     0.122 A 
ATOM      6  C   UNL     1     -43.239  41.693  27.466  1.00  0.00     0.126 A 
ATOM      7  C   UNL     1     -44.092  42.407  26.637  1.00  0.00    -0.019 A 
ATOM      8  N   UNL     1     -43.515  40.440  27.875  1.00  0.00    -0.231 NA
ATOM      9  C   UNL     1     -45.284  41.819  26.228  1.00  0.00    -0.049 A 
ATOM     10  H   UNL     1     -43.828  43.401  26.293  1.00  0.00     0.066 H 
ATOM     11  C   UNL     1     -44.667  39.865  27.482  1.00  0.00     0.076 A 
ATOM     12  C   UNL     1     -45.594  40.524  26.651  1.00  0.00     0.001 A 
ATOM     13  H   UNL     1     -45.954  42.371  25.575  1.00  0.00     0.063 H 
ATOM     14  C   UNL     1     -44.967  38.576  27.899  1.00  0.00     0.007 A 
ATOM     15  C   UNL     1     -46.780  39.881  26.266  1.00  0.00    -0.049 A 
ATOM     16  H   UNL     1     -44.254  38.060  28.538  1.00  0.00     0.069 H 
ATOM     17  C   UNL     1     -47.057  38.584  26.702  1.00  0.00    -0.019 A 
ATOM     18  H   UNL     1     -47.494  40.383  25.616  1.00  0.00     0.063 H 
ATOM     19  H   UNL     1     -47.977  38.120  26.364  1.00  0.00     0.066 H 
BRANCH   6  20
ATOM     20  N   UNL     1     -42.020  42.212  27.904  1.00  0.00    -0.373 N 
ATOM     21  H   UNL     1     -41.332  41.734  27.322  1.00  0.00     0.161 HD
BRANCH  20  22
ATOM     22  C   UNL     1     -41.756  41.993  29.316  1.00  0.00     0.005 C 
ATOM     23  H   UNL     1     -40.962  42.675  29.640  1.00  0.00     0.045 H 
ATOM     24  H   UNL     1     -41.417  40.970  29.509  1.00  0.00     0.045 H 
ATOM     25  H   UNL     1     -42.637  42.206  29.931  1.00  0.00     0.045 H 
ENDBRANCH  20  22
ENDBRANCH   6  20
ENDBRANCH   4   5
ENDBRANCH   1   4
BRANCH   1  26
ATOM     26  C   UNL     1     -47.166  34.722  26.783  1.00  0.00     0.010 A 
ATOM     27  C   UNL     1     -48.443  35.212  27.018  1.00  0.00     0.034 A 
ATOM     28  C   UNL     1     -47.060  33.429  26.248  1.00  0.00    -0.028 A 
ATOM     29  N   UNL     1     -49.573  34.532  26.737  1.00  0.00    -0.262 NA
ATOM     30  H   UNL     1     -48.605  36.195  27.452  1.00  0.00     0.084 H 
ATOM     31  C   UNL     1     -48.209  32.688  25.936  1.00  0.00     0.066 A 
ATOM     32  H   UNL     1     -46.063  33.026  26.099  1.00  0.00     0.065 H 
ATOM     33  C   UNL     1     -49.433  33.290  26.203  1.00  0.00     0.051 A 
ATOM     34  H   UNL     1     -50.388  32.825  25.986  1.00  0.00     0.086 H 
BRANCH  31  35
ATOM     35  N   UNL     1     -48.113  31.379  25.363  1.00  0.00    -0.299 N 
ATOM     36  C   UNL     1     -48.729  30.246  25.869  1.00  0.00     0.015 A 
ATOM     37  C   UNL     1     -47.404  30.986  24.228  1.00  0.00     0.150 A 
ATOM     38  C   UNL     1     -48.425  29.146  25.088  1.00  0.00    -0.016 A 
ATOM     39  H   UNL     1     -49.325  30.279  26.770  1.00  0.00     0.083 H 
ATOM     40  C   UNL     1     -47.591  29.618  24.031  1.00  0.00     0.065 A 
ATOM     41  N   UNL     1     -46.670  31.787  23.428  1.00  0.00    -0.218 NA
ATOM     42  C   UNL     1     -46.954  29.047  22.914  1.00  0.00     0.136 A 
ATOM     43  C   UNL     1     -46.108  31.130  22.406  1.00  0.00     0.120 A 
ATOM     44  N   UNL     1     -46.211  29.827  22.108  1.00  0.00    -0.219 NA
ATOM     45  H   UNL     1     -45.498  31.724  21.734  1.00  0.00     0.106 H 
BRANCH  38  46
ATOM     46  C   UNL     1     -48.893  27.747  25.343  1.00  0.00    -0.023 C 
ATOM     47  H   UNL     1     -49.914  27.762  25.738  1.00  0.00     0.032 H 
ATOM     48  H   UNL     1     -48.961  27.218  24.382  1.00  0.00     0.032 H 
BRANCH  46  49
ATOM     49  C   UNL     1     -48.013  26.980  26.291  1.00  0.00    -0.037 C 
ATOM     50  C   UNL     1     -48.365  25.565  26.674  1.00  0.00    -0.050 C 
ATOM     51  C   UNL     1     -47.171  25.831  25.797  1.00  0.00    -0.050 C 
ATOM     52  H   UNL     1     -47.591  27.612  27.066  1.00  0.00     0.031 H 
ATOM     53  H   UNL     1     -48.183  25.254  27.696  1.00  0.00     0.027 H 
ATOM     54  H   UNL     1     -49.232  25.101  26.218  1.00  0.00     0.027 H 
ATOM     55  H   UNL     1     -46.185  25.704  26.228  1.00  0.00     0.027 H 
ATOM     56  H   UNL     1     -47.236  25.548  24.752  1.00  0.00     0.027 H 
ENDBRANCH  46  49
ENDBRANCH  38  46
BRANCH  42  57
ATOM     57  N   UNL     1     -47.049  27.710  22.551  1.00  0.00    -0.383 N 
ATOM     58  H   UNL     1     -46.228  27.338  22.095  1.00  0.00     0.158 HD
ATOM     59  H   UNL     1     -47.397  27.167  23.334  1.00  0.00     0.158 HD
ENDBRANCH  42  57
ENDBRANCH  31  35
ENDBRANCH   1  26
TORSDOF 9
ENDMDL
MODEL 5
REMARK VINA RESULT:      -9.3      1.516      2.116
REMARK SMILES CNc1ccc2ccc(OCc3cncc(-n4cc(CC5CC5)c5c(N)ncnc54)c3)cc2n1
REMARK SMILES IDX 11 1 10 4 9 5 3 6 4 7 34 8 5 9 33 11 6 12 32 14 7 15 8 17
REMARK SMILES IDX 2 20 1 22 12 26 13 27 31 28 14 29 16 31 15 33 17 35 18 36
REMARK SMILES IDX 30 37 19 38 24 40 29 41 25 42 28 43 27 44 20 46 21 49 22 50
REMARK SMILES IDX 23 51 26 57
REMARK H PARENT 11 2 11 3 4 10 5 13 32 16 7 18 8 19 2 21 1 23 1 24 1 25 13 30
REMARK H PARENT 31 32 15 34 18 39 28 45 20 47 20 48 21 52 22 53 22 54 23 55
REMARK H PARENT 23 56 26 58 26 59
REMARK Flexibility Score: inf
ROOT
ATOM      1  C   UNL     1     -47.999  36.327  27.079  1.00  0.00     0.115 C 
ATOM      2  H   UNL     1     -47.631  36.928  26.238  1.00  0.00     0.076 H 
ATOM      3  H   UNL     1     -49.093  36.332  27.004  1.00  0.00     0.076 H 
ENDROOT
BRANCH   1   4
ATOM      4  O   UNL     1     -47.680  36.951  28.325  1.00  0.00    -0.489 OA
BRANCH   4   5
ATOM      5  C   UNL     1     -46.602  37.791  28.386  1.00  0.00     0.122 A 
ATOM      6  C   UNL     1     -44.478  41.400  26.123  1.00  0.00     0.126 A 
ATOM      7  C   UNL     1     -43.485  41.493  27.088  1.00  0.00    -0.019 A 
ATOM      8  N   UNL     1     -45.475  40.499  26.200  1.00  0.00    -0.231 NA
ATOM      9  C   UNL     1     -43.506  40.613  28.164  1.00  0.00    -0.049 A 
ATOM     10  H   UNL     1     -42.714  42.253  27.019  1.00  0.00     0.066 H 
ATOM     11  C   UNL     1     -45.501  39.645  27.240  1.00  0.00     0.076 A 
ATOM     12  C   UNL     1     -44.527  39.662  28.256  1.00  0.00     0.001 A 
ATOM     13  H   UNL     1     -42.735  40.682  28.925  1.00  0.00     0.063 H 
ATOM     14  C   UNL     1     -46.520  38.707  27.331  1.00  0.00     0.007 A 
ATOM     15  C   UNL     1     -44.598  38.752  29.322  1.00  0.00    -0.049 A 
ATOM     16  H   UNL     1     -47.279  38.690  26.552  1.00  0.00     0.069 H 
ATOM     17  C   UNL     1     -45.635  37.819  29.387  1.00  0.00    -0.019 A 
ATOM     18  H   UNL     1     -43.853  38.769  30.114  1.00  0.00     0.063 H 
ATOM     19  H   UNL     1     -45.661  37.148  30.238  1.00  0.00     0.066 H 
BRANCH   6  20
ATOM     20  N   UNL     1     -44.530  42.259  25.024  1.00  0.00    -0.373 N 
ATOM     21  H   UNL     1     -43.627  42.125  24.570  1.00  0.00     0.161 HD
BRANCH  20  22
ATOM     22  C   UNL     1     -44.742  43.654  25.371  1.00  0.00     0.005 C 
ATOM     23  H   UNL     1     -45.647  43.736  25.982  1.00  0.00     0.045 H 
ATOM     24  H   UNL     1     -44.883  44.274  24.479  1.00  0.00     0.045 H 
ATOM     25  H   UNL     1     -43.913  44.055  25.964  1.00  0.00     0.045 H 
ENDBRANCH  20  22
ENDBRANCH   6  20
ENDBRANCH   4   5
ENDBRANCH   1   4
BRANCH   1  26
ATOM     26  C   UNL     1     -47.548  34.892  26.990  1.00  0.00     0.010 A 
ATOM     27  C   UNL     1     -46.586  34.415  27.870  1.00  0.00     0.034 A 
ATOM     28  C   UNL     1     -48.021  34.006  26.010  1.00  0.00    -0.028 A 
ATOM     29  N   UNL     1     -46.110  33.154  27.851  1.00  0.00    -0.262 NA
ATOM     30  H   UNL     1     -46.156  35.048  28.641  1.00  0.00     0.084 H 
ATOM     31  C   UNL     1     -47.556  32.684  25.956  1.00  0.00     0.066 A 
ATOM     32  H   UNL     1     -48.743  34.386  25.294  1.00  0.00     0.065 H 
ATOM     33  C   UNL     1     -46.603  32.318  26.900  1.00  0.00     0.051 A 
ATOM     34  H   UNL     1     -46.184  31.321  26.971  1.00  0.00     0.086 H 
BRANCH  31  35
ATOM     35  N   UNL     1     -48.051  31.764  24.978  1.00  0.00    -0.299 N 
ATOM     36  C   UNL     1     -49.246  31.069  25.077  1.00  0.00     0.015 A 
ATOM     37  C   UNL     1     -47.457  31.384  23.773  1.00  0.00     0.150 A 
ATOM     38  C   UNL     1     -49.422  30.257  23.972  1.00  0.00    -0.016 A 
ATOM     39  H   UNL     1     -49.890  31.169  25.939  1.00  0.00     0.083 H 
ATOM     40  C   UNL     1     -48.289  30.467  23.130  1.00  0.00     0.065 A 
ATOM     41  N   UNL     1     -46.284  31.835  23.286  1.00  0.00    -0.218 NA
ATOM     42  C   UNL     1     -47.850  29.983  21.884  1.00  0.00     0.136 A 
ATOM     43  C   UNL     1     -45.970  31.299  22.100  1.00  0.00     0.120 A 
ATOM     44  N   UNL     1     -46.679  30.414  21.384  1.00  0.00    -0.219 NA
ATOM     45  H   UNL     1     -45.030  31.619  21.664  1.00  0.00     0.106 H 
BRANCH  38  46
ATOM     46  C   UNL     1     -50.585  29.343  23.744  1.00  0.00    -0.023 C 
ATOM     47  H   UNL     1     -51.389  29.581  24.450  1.00  0.00     0.032 H 
ATOM     48  H   UNL     1     -51.003  29.546  22.748  1.00  0.00     0.032 H 
BRANCH  46  49
ATOM     49  C   UNL     1     -50.241  27.885  23.871  1.00  0.00    -0.037 C 
ATOM     50  C   UNL     1     -49.271  27.425  24.930  1.00  0.00    -0.050 C 
ATOM     51  C   UNL     1     -50.731  27.080  25.048  1.00  0.00    -0.050 C 
ATOM     52  H   UNL     1     -50.196  27.385  22.908  1.00  0.00     0.031 H 
ATOM     53  H   UNL     1     -48.581  26.628  24.677  1.00  0.00     0.027 H 
ATOM     54  H   UNL     1     -48.867  28.155  25.621  1.00  0.00     0.027 H 
ATOM     55  H   UNL     1     -51.027  26.053  24.871  1.00  0.00     0.027 H 
ATOM     56  H   UNL     1     -51.310  27.580  25.817  1.00  0.00     0.027 H 
ENDBRANCH  46  49
ENDBRANCH  38  46
BRANCH  42  57
ATOM     57  N   UNL     1     -48.558  29.087  21.095  1.00  0.00    -0.383 N 
ATOM     58  H   UNL     1     -49.277  28.572  21.584  1.00  0.00     0.158 HD
ATOM     59  H   UNL     1     -48.855  29.544  20.239  1.00  0.00     0.158 HD
ENDBRANCH  42  57
ENDBRANCH  31  35
ENDBRANCH   1  26
TORSDOF 9
ENDMDL
MODEL 6
REMARK VINA RESULT:      -9.3      2.441     10.973
REMARK SMILES CNc1ccc2ccc(OCc3cncc(-n4cc(CC5CC5)c5c(N)ncnc54)c3)cc2n1
REMARK SMILES IDX 11 1 10 4 9 5 3 6 4 7 34 8 5 9 33 11 6 12 32 14 7 15 8 17
REMARK SMILES IDX 2 20 1 22 12 26 13 27 31 28 14 29 16 31 15 33 17 35 18 36
REMARK SMILES IDX 30 37 19 38 24 40 29 41 25 42 28 43 27 44 20 46 21 49 22 50
REMARK SMILES IDX 23 51 26 57
REMARK H PARENT 11 2 11 3 4 10 5 13 32 16 7 18 8 19 2 21 1 23 1 24 1 25 13 30
REMARK H PARENT 31 32 15 34 18 39 28 45 20 47 20 48 21 52 22 53 22 54 23 55
REMARK H PARENT 23 56 26 58 26 59
REMARK Flexibility Score: inf
ROOT
ATOM      1  C   UNL     1     -47.897  34.714  26.818  1.00  0.00     0.115 C 
ATOM      2  H   UNL     1     -48.950  34.608  27.105  1.00  0.00     0.076 H 
ATOM      3  H   UNL     1     -47.894  34.979  25.754  1.00  0.00     0.076 H 
ENDROOT
BRANCH   1   4
ATOM      4  O   UNL     1     -47.216  33.460  26.919  1.00  0.00    -0.489 OA
BRANCH   4   5
ATOM      5  C   UNL     1     -47.529  32.466  26.034  1.00  0.00     0.122 A 
ATOM      6  C   UNL     1     -46.514  30.803  21.690  1.00  0.00     0.126 A 
ATOM      7  C   UNL     1     -47.384  29.732  21.837  1.00  0.00    -0.019 A 
ATOM      8  N   UNL     1     -46.326  31.716  22.661  1.00  0.00    -0.231 NA
ATOM      9  C   UNL     1     -48.103  29.605  23.020  1.00  0.00    -0.049 A 
ATOM     10  H   UNL     1     -47.489  28.992  21.052  1.00  0.00     0.066 H 
ATOM     11  C   UNL     1     -47.018  31.597  23.810  1.00  0.00     0.076 A 
ATOM     12  C   UNL     1     -47.930  30.549  24.036  1.00  0.00     0.001 A 
ATOM     13  H   UNL     1     -48.782  28.767  23.144  1.00  0.00     0.063 H 
ATOM     14  C   UNL     1     -46.838  32.534  24.818  1.00  0.00     0.007 A 
ATOM     15  C   UNL     1     -48.626  30.466  25.252  1.00  0.00    -0.049 A 
ATOM     16  H   UNL     1     -46.132  33.344  24.652  1.00  0.00     0.069 H 
ATOM     17  C   UNL     1     -48.425  31.423  26.249  1.00  0.00    -0.019 A 
ATOM     18  H   UNL     1     -49.324  29.652  25.434  1.00  0.00     0.063 H 
ATOM     19  H   UNL     1     -48.971  31.310  27.179  1.00  0.00     0.066 H 
BRANCH   6  20
ATOM     20  N   UNL     1     -45.749  30.988  20.537  1.00  0.00    -0.373 N 
ATOM     21  H   UNL     1     -44.828  31.238  20.898  1.00  0.00     0.161 HD
BRANCH  20  22
ATOM     22  C   UNL     1     -46.261  32.012  19.643  1.00  0.00     0.005 C 
ATOM     23  H   UNL     1     -45.710  31.968  18.698  1.00  0.00     0.045 H 
ATOM     24  H   UNL     1     -46.126  33.016  20.061  1.00  0.00     0.045 H 
ATOM     25  H   UNL     1     -47.319  31.855  19.410  1.00  0.00     0.045 H 
ENDBRANCH  20  22
ENDBRANCH   6  20
ENDBRANCH   4   5
ENDBRANCH   1   4
BRANCH   1  26
ATOM     26  C   UNL     1     -47.215  35.833  27.563  1.00  0.00     0.010 A 
ATOM     27  C   UNL     1     -46.818  35.643  28.880  1.00  0.00     0.034 A 
ATOM     28  C   UNL     1     -47.003  37.101  27.002  1.00  0.00    -0.028 A 
ATOM     29  N   UNL     1     -46.221  36.592  29.628  1.00  0.00    -0.262 NA
ATOM     30  H   UNL     1     -46.970  34.696  29.389  1.00  0.00     0.084 H 
ATOM     31  C   UNL     1     -46.381  38.116  27.743  1.00  0.00     0.066 A 
ATOM     32  H   UNL     1     -47.348  37.266  25.986  1.00  0.00     0.065 H 
ATOM     33  C   UNL     1     -46.015  37.803  29.047  1.00  0.00     0.051 A 
ATOM     34  H   UNL     1     -45.510  38.497  29.709  1.00  0.00     0.086 H 
BRANCH  31  35
ATOM     35  N   UNL     1     -46.134  39.405  27.172  1.00  0.00    -0.299 N 
ATOM     36  C   UNL     1     -44.905  39.845  26.710  1.00  0.00     0.015 A 
ATOM     37  C   UNL     1     -47.041  40.448  26.974  1.00  0.00     0.150 A 
ATOM     38  C   UNL     1     -45.007  41.138  26.230  1.00  0.00    -0.016 A 
ATOM     39  H   UNL     1     -44.021  39.226  26.773  1.00  0.00     0.083 H 
ATOM     40  C   UNL     1     -46.372  41.521  26.384  1.00  0.00     0.065 A 
ATOM     41  N   UNL     1     -48.355  40.431  27.278  1.00  0.00    -0.218 NA
ATOM     42  C   UNL     1     -47.141  42.664  26.099  1.00  0.00     0.136 A 
ATOM     43  C   UNL     1     -48.977  41.574  26.968  1.00  0.00     0.120 A 
ATOM     44  N   UNL     1     -48.452  42.670  26.401  1.00  0.00    -0.219 NA
ATOM     45  H   UNL     1     -50.036  41.620  27.199  1.00  0.00     0.106 H 
BRANCH  38  46
ATOM     46  C   UNL     1     -43.877  41.948  25.675  1.00  0.00    -0.023 C 
ATOM     47  H   UNL     1     -43.277  41.332  24.995  1.00  0.00     0.032 H 
ATOM     48  H   UNL     1     -44.292  42.750  25.049  1.00  0.00     0.032 H 
BRANCH  46  49
ATOM     49  C   UNL     1     -42.977  42.531  26.729  1.00  0.00    -0.037 C 
ATOM     50  C   UNL     1     -42.613  41.722  27.947  1.00  0.00    -0.050 C 
ATOM     51  C   UNL     1     -41.569  42.020  26.905  1.00  0.00    -0.050 C 
ATOM     52  H   UNL     1     -43.144  43.594  26.873  1.00  0.00     0.031 H 
ATOM     53  H   UNL     1     -42.540  42.236  28.898  1.00  0.00     0.027 H 
ATOM     54  H   UNL     1     -42.973  40.702  28.023  1.00  0.00     0.027 H 
ATOM     55  H   UNL     1     -40.797  42.739  27.150  1.00  0.00     0.027 H 
ATOM     56  H   UNL     1     -41.229  41.203  26.279  1.00  0.00     0.027 H 
ENDBRANCH  46  49
ENDBRANCH  38  46
BRANCH  42  57
ATOM     57  N   UNL     1     -46.649  43.812  25.492  1.00  0.00    -0.383 N 
ATOM     58  H   UNL     1     -45.669  43.772  25.249  1.00  0.00     0.158 HD
ATOM     59  H   UNL     1     -47.273  44.098  24.745  1.00  0.00     0.158 HD
ENDBRANCH  42  57
ENDBRANCH  31  35
ENDBRANCH   1  26
TORSDOF 9
ENDMDL
MODEL 7
REMARK VINA RESULT:      -9.3      2.422     10.899
REMARK SMILES CNc1ccc2ccc(OCc3cncc(-n4cc(CC5CC5)c5c(N)ncnc54)c3)cc2n1
REMARK SMILES IDX 11 1 10 4 9 5 3 6 4 7 34 8 5 9 33 11 6 12 32 14 7 15 8 17
REMARK SMILES IDX 2 20 1 22 12 26 13 27 31 28 14 29 16 31 15 33 17 35 18 36
REMARK SMILES IDX 30 37 19 38 24 40 29 41 25 42 28 43 27 44 20 46 21 49 22 50
REMARK SMILES IDX 23 51 26 57
REMARK H PARENT 11 2 11 3 4 10 5 13 32 16 7 18 8 19 2 21 1 23 1 24 1 25 13 30
REMARK H PARENT 31 32 15 34 18 39 28 45 20 47 20 48 21 52 22 53 22 54 23 55
REMARK H PARENT 23 56 26 58 26 59
REMARK Flexibility Score: inf
ROOT
ATOM      1  C   UNL     1     -47.478  32.342  24.813  1.00  0.00     0.115 C 
ATOM      2  H   UNL     1     -47.071  32.746  23.877  1.00  0.00     0.076 H 
ATOM      3  H   UNL     1     -47.034  31.347  24.937  1.00  0.00     0.076 H 
ENDROOT
BRANCH   1   4
ATOM      4  O   UNL     1     -48.890  32.139  24.705  1.00  0.00    -0.489 OA
BRANCH   4   5
ATOM      5  C   UNL     1     -49.362  30.868  24.521  1.00  0.00     0.122 A 
ATOM      6  C   UNL     1     -49.005  26.418  26.174  1.00  0.00     0.126 A 
ATOM      7  C   UNL     1     -49.959  25.951  25.281  1.00  0.00    -0.019 A 
ATOM      8  N   UNL     1     -48.634  27.711  26.220  1.00  0.00    -0.231 NA
ATOM      9  C   UNL     1     -50.540  26.845  24.388  1.00  0.00    -0.049 A 
ATOM     10  H   UNL     1     -50.265  24.912  25.290  1.00  0.00     0.066 H 
ATOM     11  C   UNL     1     -49.194  28.581  25.358  1.00  0.00     0.076 A 
ATOM     12  C   UNL     1     -50.160  28.189  24.412  1.00  0.00     0.001 A 
ATOM     13  H   UNL     1     -51.291  26.488  23.688  1.00  0.00     0.063 H 
ATOM     14  C   UNL     1     -48.818  29.917  25.392  1.00  0.00     0.007 A 
ATOM     15  C   UNL     1     -50.717  29.134  23.536  1.00  0.00    -0.049 A 
ATOM     16  H   UNL     1     -48.075  30.227  26.123  1.00  0.00     0.069 H 
ATOM     17  C   UNL     1     -50.319  30.472  23.592  1.00  0.00    -0.019 A 
ATOM     18  H   UNL     1     -51.470  28.837  22.810  1.00  0.00     0.063 H 
ATOM     19  H   UNL     1     -50.789  31.170  22.908  1.00  0.00     0.066 H 
BRANCH   6  20
ATOM     20  N   UNL     1     -48.390  25.584  27.109  1.00  0.00    -0.373 N 
ATOM     21  H   UNL     1     -48.009  26.234  27.797  1.00  0.00     0.161 HD
BRANCH  20  22
ATOM     22  C   UNL     1     -47.351  24.735  26.553  1.00  0.00     0.005 C 
ATOM     23  H   UNL     1     -46.438  24.853  27.148  1.00  0.00     0.045 H 
ATOM     24  H   UNL     1     -47.114  25.012  25.520  1.00  0.00     0.045 H 
ATOM     25  H   UNL     1     -47.628  23.676  26.590  1.00  0.00     0.045 H 
ENDBRANCH  20  22
ENDBRANCH   6  20
ENDBRANCH   4   5
ENDBRANCH   1   4
BRANCH   1  26
ATOM     26  C   UNL     1     -47.076  33.166  26.009  1.00  0.00     0.010 A 
ATOM     27  C   UNL     1     -46.437  32.560  27.082  1.00  0.00     0.034 A 
ATOM     28  C   UNL     1     -47.366  34.534  26.121  1.00  0.00    -0.028 A 
ATOM     29  N   UNL     1     -46.060  33.213  28.199  1.00  0.00    -0.262 NA
ATOM     30  H   UNL     1     -46.201  31.500  27.078  1.00  0.00     0.084 H 
ATOM     31  C   UNL     1     -46.988  35.254  27.263  1.00  0.00     0.066 A 
ATOM     32  H   UNL     1     -47.902  35.004  25.301  1.00  0.00     0.065 H 
ATOM     33  C   UNL     1     -46.341  34.541  28.266  1.00  0.00     0.051 A 
ATOM     34  H   UNL     1     -45.984  34.992  29.185  1.00  0.00     0.086 H 
BRANCH  31  35
ATOM     35  N   UNL     1     -47.255  36.656  27.377  1.00  0.00    -0.299 N 
ATOM     36  C   UNL     1     -46.329  37.660  27.142  1.00  0.00     0.015 A 
ATOM     37  C   UNL     1     -48.450  37.280  27.739  1.00  0.00     0.150 A 
ATOM     38  C   UNL     1     -46.904  38.900  27.350  1.00  0.00    -0.016 A 
ATOM     39  H   UNL     1     -45.308  37.437  26.868  1.00  0.00     0.083 H 
ATOM     40  C   UNL     1     -48.262  38.662  27.717  1.00  0.00     0.065 A 
ATOM     41  N   UNL     1     -49.611  36.664  28.042  1.00  0.00    -0.218 NA
ATOM     42  C   UNL     1     -49.376  39.456  28.045  1.00  0.00     0.136 A 
ATOM     43  C   UNL     1     -50.593  37.521  28.343  1.00  0.00     0.120 A 
ATOM     44  N   UNL     1     -50.541  38.861  28.358  1.00  0.00    -0.219 NA
ATOM     45  H   UNL     1     -51.549  37.080  28.605  1.00  0.00     0.106 H 
BRANCH  38  46
ATOM     46  C   UNL     1     -46.200  40.215  27.216  1.00  0.00    -0.023 C 
ATOM     47  H   UNL     1     -46.636  40.787  26.389  1.00  0.00     0.032 H 
ATOM     48  H   UNL     1     -46.395  40.812  28.117  1.00  0.00     0.032 H 
BRANCH  46  49
ATOM     49  C   UNL     1     -44.718  40.086  26.994  1.00  0.00    -0.037 C 
ATOM     50  C   UNL     1     -43.866  41.320  26.842  1.00  0.00    -0.050 C 
ATOM     51  C   UNL     1     -43.744  40.471  28.078  1.00  0.00    -0.050 C 
ATOM     52  H   UNL     1     -44.465  39.230  26.376  1.00  0.00     0.031 H 
ATOM     53  H   UNL     1     -43.052  41.291  26.126  1.00  0.00     0.027 H 
ATOM     54  H   UNL     1     -44.332  42.293  26.942  1.00  0.00     0.027 H 
ATOM     55  H   UNL     1     -42.852  39.867  28.195  1.00  0.00     0.027 H 
ATOM     56  H   UNL     1     -44.131  40.871  29.009  1.00  0.00     0.027 H 
ENDBRANCH  46  49
ENDBRANCH  38  46
BRANCH  42  57
ATOM     57  N   UNL     1     -49.378  40.844  28.051  1.00  0.00    -0.383 N 
ATOM     58  H   UNL     1     -49.616  41.268  27.165  1.00  0.00     0.158 HD
ATOM     59  H   UNL     1     -49.902  41.183  28.851  1.00  0.00     0.158 HD
ENDBRANCH  42  57
ENDBRANCH  31  35
ENDBRANCH   1  26
TORSDOF 9
ENDMDL
