MODEL 1
REMARK VINA RESULT:     -10.6      0.000      0.000
REMARK SMILES Cc1cc(N)c2ccc(OC[C@H]3O[C@@H](n4cc(Br)c5c(N)ncnc54)C[C@@H]3O)cc2n1
REMARK SMILES IDX 11 1 10 4 9 5 2 6 3 7 31 8 4 9 30 11 6 12 29 13 7 14 8 16
REMARK SMILES IDX 1 19 5 23 12 26 13 27 27 28 14 30 26 31 28 36 15 38 16 39
REMARK SMILES IDX 25 40 17 41 19 43 24 44 18 45 20 46 23 47 22 48 21 50
REMARK H PARENT 11 2 11 3 3 10 29 15 7 17 8 18 1 20 1 21 1 22 5 24 5 25 12 29
REMARK H PARENT 27 32 14 33 26 34 26 35 28 37 16 42 23 49 21 51 21 52
REMARK Flexibility Score: inf
ROOT
ATOM      1  C   UNL     1     -47.452  35.894  27.199  1.00  0.00     0.117 C 
ATOM      2  H   UNL     1     -48.143  36.742  27.207  1.00  0.00     0.073 H 
ATOM      3  H   UNL     1     -46.989  35.902  26.205  1.00  0.00     0.073 H 
ENDROOT
BRANCH   1   4
ATOM      4  O   UNL     1     -48.113  34.629  27.303  1.00  0.00    -0.491 OA
BRANCH   4   5
ATOM      5  C   UNL     1     -47.830  33.637  26.409  1.00  0.00     0.121 A 
ATOM      6  C   UNL     1     -48.587  29.497  24.210  1.00  0.00     0.040 A 
ATOM      7  C   UNL     1     -47.426  29.589  23.458  1.00  0.00    -0.017 A 
ATOM      8  N   UNL     1     -48.982  30.467  25.062  1.00  0.00    -0.253 NA
ATOM      9  C   UNL     1     -46.643  30.740  23.550  1.00  0.00     0.043 A 
ATOM     10  H   UNL     1     -47.138  28.773  22.803  1.00  0.00     0.066 H 
ATOM     11  C   UNL     1     -48.195  31.544  25.220  1.00  0.00     0.076 A 
ATOM     12  C   UNL     1     -46.994  31.728  24.502  1.00  0.00     0.023 A 
ATOM     13  C   UNL     1     -48.590  32.500  26.150  1.00  0.00     0.007 A 
ATOM     14  C   UNL     1     -46.220  32.878  24.773  1.00  0.00    -0.047 A 
ATOM     15  H   UNL     1     -49.511  32.296  26.684  1.00  0.00     0.069 H 
ATOM     16  C   UNL     1     -46.639  33.820  25.712  1.00  0.00    -0.019 A 
ATOM     17  H   UNL     1     -45.275  33.045  24.266  1.00  0.00     0.063 H 
ATOM     18  H   UNL     1     -46.027  34.696  25.904  1.00  0.00     0.066 H 
BRANCH   6  19
ATOM     19  C   UNL     1     -49.454  28.278  24.111  1.00  0.00    -0.022 C 
ATOM     20  H   UNL     1     -50.272  28.437  23.401  1.00  0.00     0.030 H 
ATOM     21  H   UNL     1     -49.891  28.044  25.086  1.00  0.00     0.030 H 
ATOM     22  H   UNL     1     -48.865  27.422  23.766  1.00  0.00     0.030 H 
ENDBRANCH   6  19
BRANCH   9  23
ATOM     23  N   UNL     1     -45.424  30.774  22.841  1.00  0.00    -0.398 N 
ATOM     24  H   UNL     1     -44.817  31.544  23.109  1.00  0.00     0.156 HD
ATOM     25  H   UNL     1     -44.926  29.892  22.840  1.00  0.00     0.156 HD
ENDBRANCH   9  23
ENDBRANCH   4   5
ENDBRANCH   1   4
BRANCH   1  26
ATOM     26  C   UNL     1     -46.338  36.055  28.241  1.00  0.00     0.120 C 
ATOM     27  O   UNL     1     -45.325  36.966  27.757  1.00  0.00    -0.348 OA
ATOM     28  C   UNL     1     -46.841  36.608  29.578  1.00  0.00     0.088 C 
ATOM     29  H   UNL     1     -45.848  35.084  28.376  1.00  0.00     0.067 H 
ATOM     30  C   UNL     1     -45.113  37.977  28.768  1.00  0.00     0.138 C 
ATOM     31  C   UNL     1     -46.419  38.055  29.545  1.00  0.00     0.022 C 
ATOM     32  H   UNL     1     -47.913  36.463  29.739  1.00  0.00     0.063 H 
ATOM     33  H   UNL     1     -44.281  37.646  29.401  1.00  0.00     0.085 H 
ATOM     34  H   UNL     1     -46.284  38.487  30.541  1.00  0.00     0.034 H 
ATOM     35  H   UNL     1     -47.158  38.656  29.003  1.00  0.00     0.034 H 
BRANCH  28  36
ATOM     36  O   UNL     1     -46.156  35.954  30.652  1.00  0.00    -0.390 OA
ATOM     37  H   UNL     1     -46.766  35.919  31.412  1.00  0.00     0.211 HD
ENDBRANCH  28  36
BRANCH  30  38
ATOM     38  N   UNL     1     -44.703  39.233  28.154  1.00  0.00    -0.304 N 
ATOM     39  C   UNL     1     -45.173  39.768  26.979  1.00  0.00     0.023 A 
ATOM     40  C   UNL     1     -43.710  40.047  28.654  1.00  0.00     0.148 A 
ATOM     41  C   UNL     1     -44.527  40.965  26.783  1.00  0.00     0.049 A 
ATOM     42  H   UNL     1     -45.927  39.264  26.390  1.00  0.00     0.083 H 
ATOM     43  C   UNL     1     -43.592  41.159  27.827  1.00  0.00     0.075 A 
ATOM     44  N   UNL     1     -42.988  39.799  29.762  1.00  0.00    -0.218 NA
ATOM     45  Br  UNL     1     -44.814  42.130  25.340  1.00  0.00    -0.048 Br
ATOM     46  C   UNL     1     -42.638  42.118  28.199  1.00  0.00     0.137 A 
ATOM     47  C   UNL     1     -42.104  40.778  30.008  1.00  0.00     0.120 A 
ATOM     48  N   UNL     1     -41.891  41.903  29.300  1.00  0.00    -0.219 NA
ATOM     49  H   UNL     1     -41.481  40.649  30.888  1.00  0.00     0.106 H 
BRANCH  46  50
ATOM     50  N   UNL     1     -42.389  43.287  27.496  1.00  0.00    -0.383 N 
ATOM     51  H   UNL     1     -43.191  43.886  27.356  1.00  0.00     0.158 HD
ATOM     52  H   UNL     1     -41.785  43.123  26.701  1.00  0.00     0.158 HD
ENDBRANCH  46  50
ENDBRANCH  30  38
ENDBRANCH   1  26
TORSDOF 8
ENDMDL
MODEL 2
REMARK VINA RESULT:      -9.9      2.873      9.957
REMARK SMILES Cc1cc(N)c2ccc(OC[C@H]3O[C@@H](n4cc(Br)c5c(N)ncnc54)C[C@@H]3O)cc2n1
REMARK SMILES IDX 11 1 10 4 9 5 2 6 3 7 31 8 4 9 30 11 6 12 29 13 7 14 8 16
REMARK SMILES IDX 1 19 5 23 12 26 13 27 27 28 14 30 26 31 28 36 15 38 16 39
REMARK SMILES IDX 25 40 17 41 19 43 24 44 18 45 20 46 23 47 22 48 21 50
REMARK H PARENT 11 2 11 3 3 10 29 15 7 17 8 18 1 20 1 21 1 22 5 24 5 25 12 29
REMARK H PARENT 27 32 14 33 26 34 26 35 28 37 16 42 23 49 21 51 21 52
REMARK Flexibility Score: inf
ROOT
ATOM      1  C   UNL     1     -48.366  36.049  27.355  1.00  0.00     0.117 C 
ATOM      2  H   UNL     1     -48.401  36.400  26.320  1.00  0.00     0.073 H 
ATOM      3  H   UNL     1     -49.393  35.755  27.601  1.00  0.00     0.073 H 
ENDROOT
BRANCH   1   4
ATOM      4  O   UNL     1     -48.030  37.080  28.288  1.00  0.00    -0.491 OA
BRANCH   4   5
ATOM      5  C   UNL     1     -47.051  37.981  27.984  1.00  0.00     0.121 A 
ATOM      6  C   UNL     1     -43.103  40.481  28.835  1.00  0.00     0.040 A 
ATOM      7  C   UNL     1     -43.183  41.173  27.635  1.00  0.00    -0.017 A 
ATOM      8  N   UNL     1     -43.987  39.520  29.182  1.00  0.00    -0.253 NA
ATOM      9  C   UNL     1     -44.191  40.848  26.727  1.00  0.00     0.043 A 
ATOM     10  H   UNL     1     -42.463  41.953  27.411  1.00  0.00     0.066 H 
ATOM     11  C   UNL     1     -45.008  39.255  28.351  1.00  0.00     0.076 A 
ATOM     12  C   UNL     1     -45.176  39.906  27.110  1.00  0.00     0.023 A 
ATOM     13  C   UNL     1     -45.941  38.307  28.759  1.00  0.00     0.007 A 
ATOM     14  C   UNL     1     -46.308  39.581  26.331  1.00  0.00    -0.047 A 
ATOM     15  H   UNL     1     -45.770  37.853  29.729  1.00  0.00     0.069 H 
ATOM     16  C   UNL     1     -47.228  38.627  26.764  1.00  0.00    -0.019 A 
ATOM     17  H   UNL     1     -46.493  40.078  25.383  1.00  0.00     0.063 H 
ATOM     18  H   UNL     1     -48.092  38.394  26.147  1.00  0.00     0.066 H 
BRANCH   6  19
ATOM     19  C   UNL     1     -42.016  40.799  29.817  1.00  0.00    -0.022 C 
ATOM     20  H   UNL     1     -41.167  41.275  29.318  1.00  0.00     0.030 H 
ATOM     21  H   UNL     1     -41.659  39.883  30.297  1.00  0.00     0.030 H 
ATOM     22  H   UNL     1     -42.389  41.485  30.584  1.00  0.00     0.030 H 
ENDBRANCH   6  19
BRANCH   9  23
ATOM     23  N   UNL     1     -44.303  41.622  25.553  1.00  0.00    -0.398 N 
ATOM     24  H   UNL     1     -43.477  42.178  25.349  1.00  0.00     0.156 HD
ATOM     25  H   UNL     1     -44.606  41.095  24.743  1.00  0.00     0.156 HD
ENDBRANCH   9  23
ENDBRANCH   4   5
ENDBRANCH   1   4
BRANCH   1  26
ATOM     26  C   UNL     1     -47.471  34.813  27.509  1.00  0.00     0.120 C 
ATOM     27  O   UNL     1     -48.156  33.633  27.027  1.00  0.00    -0.348 OA
ATOM     28  C   UNL     1     -46.157  34.922  26.731  1.00  0.00     0.088 C 
ATOM     29  H   UNL     1     -47.284  34.651  28.577  1.00  0.00     0.067 H 
ATOM     30  C   UNL     1     -47.289  32.969  26.081  1.00  0.00     0.138 C 
ATOM     31  C   UNL     1     -46.392  34.060  25.516  1.00  0.00     0.022 C 
ATOM     32  H   UNL     1     -45.868  35.950  26.494  1.00  0.00     0.063 H 
ATOM     33  H   UNL     1     -46.715  32.212  26.629  1.00  0.00     0.085 H 
ATOM     34  H   UNL     1     -45.469  33.658  25.088  1.00  0.00     0.034 H 
ATOM     35  H   UNL     1     -46.914  34.629  24.739  1.00  0.00     0.034 H 
BRANCH  28  36
ATOM     36  O   UNL     1     -45.096  34.347  27.502  1.00  0.00    -0.390 OA
ATOM     37  H   UNL     1     -44.294  34.354  26.949  1.00  0.00     0.211 HD
ENDBRANCH  28  36
BRANCH  30  38
ATOM     38  N   UNL     1     -48.076  32.260  25.080  1.00  0.00    -0.304 N 
ATOM     39  C   UNL     1     -49.446  32.176  25.017  1.00  0.00     0.023 A 
ATOM     40  C   UNL     1     -47.532  31.501  24.068  1.00  0.00     0.148 A 
ATOM     41  C   UNL     1     -49.763  31.426  23.911  1.00  0.00     0.049 A 
ATOM     42  H   UNL     1     -50.076  32.660  25.751  1.00  0.00     0.083 H 
ATOM     43  C   UNL     1     -48.567  30.982  23.298  1.00  0.00     0.075 A 
ATOM     44  N   UNL     1     -46.215  31.307  23.865  1.00  0.00    -0.218 NA
ATOM     45  Br  UNL     1     -51.503  31.023  23.334  1.00  0.00    -0.048 Br
ATOM     46  C   UNL     1     -48.197  30.197  22.196  1.00  0.00     0.137 A 
ATOM     47  C   UNL     1     -45.987  30.534  22.792  1.00  0.00     0.120 A 
ATOM     48  N   UNL     1     -46.888  29.975  21.963  1.00  0.00    -0.219 NA
ATOM     49  H   UNL     1     -44.945  30.331  22.563  1.00  0.00     0.106 H 
BRANCH  46  50
ATOM     50  N   UNL     1     -49.094  29.605  21.321  1.00  0.00    -0.383 N 
ATOM     51  H   UNL     1     -48.756  28.775  20.852  1.00  0.00     0.158 HD
ATOM     52  H   UNL     1     -49.578  30.293  20.759  1.00  0.00     0.158 HD
ENDBRANCH  46  50
ENDBRANCH  30  38
ENDBRANCH   1  26
TORSDOF 8
ENDMDL
MODEL 3
REMARK VINA RESULT:      -9.4      1.428      2.252
REMARK SMILES Cc1cc(N)c2ccc(OC[C@H]3O[C@@H](n4cc(Br)c5c(N)ncnc54)C[C@@H]3O)cc2n1
REMARK SMILES IDX 11 1 10 4 9 5 2 6 3 7 31 8 4 9 30 11 6 12 29 13 7 14 8 16
REMARK SMILES IDX 1 19 5 23 12 26 13 27 27 28 14 30 26 31 28 36 15 38 16 39
REMARK SMILES IDX 25 40 17 41 19 43 24 44 18 45 20 46 23 47 22 48 21 50
REMARK H PARENT 11 2 11 3 3 10 29 15 7 17 8 18 1 20 1 21 1 22 5 24 5 25 12 29
REMARK H PARENT 27 32 14 33 26 34 26 35 28 37 16 42 23 49 21 51 21 52
REMARK Flexibility Score: inf
ROOT
ATOM      1  C   UNL     1     -46.310  34.952  26.753  1.00  0.00     0.117 C 
ATOM      2  H   UNL     1     -46.824  35.317  25.859  1.00  0.00     0.073 H 
ATOM      3  H   UNL     1     -45.240  35.071  26.546  1.00  0.00     0.073 H 
ENDROOT
BRANCH   1   4
ATOM      4  O   UNL     1     -46.503  33.553  26.981  1.00  0.00    -0.491 OA
BRANCH   4   5
ATOM      5  C   UNL     1     -46.834  32.733  25.942  1.00  0.00     0.121 A 
ATOM      6  C   UNL     1     -46.578  31.151  21.471  1.00  0.00     0.040 A 
ATOM      7  C   UNL     1     -47.568  30.199  21.663  1.00  0.00    -0.017 A 
ATOM      8  N   UNL     1     -46.137  31.953  22.464  1.00  0.00    -0.253 NA
ATOM      9  C   UNL     1     -48.113  30.030  22.936  1.00  0.00     0.043 A 
ATOM     10  H   UNL     1     -47.906  29.594  20.829  1.00  0.00     0.066 H 
ATOM     11  C   UNL     1     -46.710  31.855  23.674  1.00  0.00     0.076 A 
ATOM     12  C   UNL     1     -47.725  30.919  23.967  1.00  0.00     0.023 A 
ATOM     13  C   UNL     1     -46.283  32.734  24.663  1.00  0.00     0.007 A 
ATOM     14  C   UNL     1     -48.290  30.926  25.262  1.00  0.00    -0.047 A 
ATOM     15  H   UNL     1     -45.514  33.442  24.375  1.00  0.00     0.069 H 
ATOM     16  C   UNL     1     -47.843  31.820  26.235  1.00  0.00    -0.019 A 
ATOM     17  H   UNL     1     -49.093  30.244  25.523  1.00  0.00     0.063 H 
ATOM     18  H   UNL     1     -48.293  31.807  27.223  1.00  0.00     0.066 H 
BRANCH   6  19
ATOM     19  C   UNL     1     -45.964  31.337  20.116  1.00  0.00    -0.022 C 
ATOM     20  H   UNL     1     -46.725  31.611  19.377  1.00  0.00     0.030 H 
ATOM     21  H   UNL     1     -45.488  30.409  19.785  1.00  0.00     0.030 H 
ATOM     22  H   UNL     1     -45.215  32.134  20.146  1.00  0.00     0.030 H 
ENDBRANCH   6  19
BRANCH   9  23
ATOM     23  N   UNL     1     -49.177  29.116  23.088  1.00  0.00    -0.398 N 
ATOM     24  H   UNL     1     -49.033  28.442  23.834  1.00  0.00     0.156 HD
ATOM     25  H   UNL     1     -50.088  29.555  23.154  1.00  0.00     0.156 HD
ENDBRANCH   9  23
ENDBRANCH   4   5
ENDBRANCH   1   4
BRANCH   1  26
ATOM     26  C   UNL     1     -46.648  35.795  27.990  1.00  0.00     0.120 C 
ATOM     27  O   UNL     1     -45.652  36.826  28.183  1.00  0.00    -0.348 OA
ATOM     28  C   UNL     1     -48.007  36.491  27.889  1.00  0.00     0.088 C 
ATOM     29  H   UNL     1     -46.602  35.146  28.873  1.00  0.00     0.067 H 
ATOM     30  C   UNL     1     -46.340  38.092  28.308  1.00  0.00     0.138 C 
ATOM     31  C   UNL     1     -47.651  37.918  27.556  1.00  0.00     0.022 C 
ATOM     32  H   UNL     1     -48.689  36.027  27.171  1.00  0.00     0.063 H 
ATOM     33  H   UNL     1     -46.503  38.278  29.376  1.00  0.00     0.085 H 
ATOM     34  H   UNL     1     -48.410  38.638  27.876  1.00  0.00     0.034 H 
ATOM     35  H   UNL     1     -47.498  38.032  26.477  1.00  0.00     0.034 H 
BRANCH  28  36
ATOM     36  O   UNL     1     -48.652  36.466  29.167  1.00  0.00    -0.390 OA
ATOM     37  H   UNL     1     -49.560  36.800  29.045  1.00  0.00     0.211 HD
ENDBRANCH  28  36
BRANCH  30  38
ATOM     38  N   UNL     1     -45.502  39.176  27.813  1.00  0.00    -0.304 N 
ATOM     39  C   UNL     1     -45.649  39.859  26.631  1.00  0.00     0.023 A 
ATOM     40  C   UNL     1     -44.374  39.634  28.460  1.00  0.00     0.148 A 
ATOM     41  C   UNL     1     -44.654  40.805  26.573  1.00  0.00     0.049 A 
ATOM     42  H   UNL     1     -46.447  39.625  25.939  1.00  0.00     0.083 H 
ATOM     43  C   UNL     1     -43.831  40.677  27.716  1.00  0.00     0.075 A 
ATOM     44  N   UNL     1     -43.893  39.149  29.619  1.00  0.00    -0.218 NA
ATOM     45  Br  UNL     1     -44.408  42.037  25.179  1.00  0.00    -0.048 Br
ATOM     46  C   UNL     1     -42.682  41.288  28.240  1.00  0.00     0.137 A 
ATOM     47  C   UNL     1     -42.790  39.804  30.011  1.00  0.00     0.120 A 
ATOM     48  N   UNL     1     -42.166  40.826  29.397  1.00  0.00    -0.219 NA
ATOM     49  H   UNL     1     -42.341  39.468  30.941  1.00  0.00     0.106 H 
BRANCH  46  50
ATOM     50  N   UNL     1     -42.013  42.341  27.636  1.00  0.00    -0.383 N 
ATOM     51  H   UNL     1     -42.500  43.226  27.648  1.00  0.00     0.158 HD
ATOM     52  H   UNL     1     -41.580  42.059  26.766  1.00  0.00     0.158 HD
ENDBRANCH  46  50
ENDBRANCH  30  38
ENDBRANCH   1  26
TORSDOF 8
ENDMDL
MODEL 4
REMARK VINA RESULT:      -9.3      4.908     11.508
REMARK SMILES Cc1cc(N)c2ccc(OC[C@H]3O[C@@H](n4cc(Br)c5c(N)ncnc54)C[C@@H]3O)cc2n1
REMARK SMILES IDX 11 1 10 4 9 5 2 6 3 7 31 8 4 9 30 11 6 12 29 13 7 14 8 16
REMARK SMILES IDX 1 19 5 23 12 26 13 27 27 28 14 30 26 31 28 36 15 38 16 39
REMARK SMILES IDX 25 40 17 41 19 43 24 44 18 45 20 46 23 47 22 48 21 50
REMARK H PARENT 11 2 11 3 3 10 29 15 7 17 8 18 1 20 1 21 1 22 5 24 5 25 12 29
REMARK H PARENT 27 32 14 33 26 34 26 35 28 37 16 42 23 49 21 51 21 52
REMARK Flexibility Score: inf
ROOT
ATOM      1  C   UNL     1     -46.101  31.502  23.388  1.00  0.00     0.117 C 
ATOM      2  H   UNL     1     -45.012  31.480  23.488  1.00  0.00     0.073 H 
ATOM      3  H   UNL     1     -46.340  32.497  22.994  1.00  0.00     0.073 H 
ENDROOT
BRANCH   1   4
ATOM      4  O   UNL     1     -46.782  31.415  24.643  1.00  0.00    -0.491 OA
BRANCH   4   5
ATOM      5  C   UNL     1     -47.154  32.553  25.297  1.00  0.00     0.121 A 
ATOM      6  C   UNL     1     -46.374  36.689  27.496  1.00  0.00     0.040 A 
ATOM      7  C   UNL     1     -47.715  36.880  27.793  1.00  0.00    -0.017 A 
ATOM      8  N   UNL     1     -45.928  35.630  26.789  1.00  0.00    -0.253 NA
ATOM      9  C   UNL     1     -48.655  35.966  27.318  1.00  0.00     0.043 A 
ATOM     10  H   UNL     1     -48.023  37.735  28.385  1.00  0.00     0.066 H 
ATOM     11  C   UNL     1     -46.814  34.701  26.394  1.00  0.00     0.076 A 
ATOM     12  C   UNL     1     -48.198  34.804  26.649  1.00  0.00     0.023 A 
ATOM     13  C   UNL     1     -46.323  33.586  25.722  1.00  0.00     0.007 A 
ATOM     14  C   UNL     1     -49.038  33.751  26.226  1.00  0.00    -0.047 A 
ATOM     15  H   UNL     1     -45.250  33.553  25.571  1.00  0.00     0.069 H 
ATOM     16  C   UNL     1     -48.519  32.644  25.554  1.00  0.00    -0.019 A 
ATOM     17  H   UNL     1     -50.105  33.774  26.426  1.00  0.00     0.063 H 
ATOM     18  H   UNL     1     -49.185  31.846  25.239  1.00  0.00     0.066 H 
BRANCH   6  19
ATOM     19  C   UNL     1     -45.349  37.670  27.981  1.00  0.00    -0.022 C 
ATOM     20  H   UNL     1     -45.605  38.042  28.978  1.00  0.00     0.030 H 
ATOM     21  H   UNL     1     -45.294  38.527  27.302  1.00  0.00     0.030 H 
ATOM     22  H   UNL     1     -44.366  37.193  28.037  1.00  0.00     0.030 H 
ENDBRANCH   6  19
BRANCH   9  23
ATOM     23  N   UNL     1     -50.001  36.134  27.704  1.00  0.00    -0.398 N 
ATOM     24  H   UNL     1     -50.394  37.031  27.436  1.00  0.00     0.156 HD
ATOM     25  H   UNL     1     -50.605  35.367  27.429  1.00  0.00     0.156 HD
ENDBRANCH   9  23
ENDBRANCH   4   5
ENDBRANCH   1   4
BRANCH   1  26
ATOM     26  C   UNL     1     -46.603  30.461  22.380  1.00  0.00     0.120 C 
ATOM     27  O   UNL     1     -46.716  29.164  23.011  1.00  0.00    -0.348 OA
ATOM     28  C   UNL     1     -47.978  30.801  21.799  1.00  0.00     0.088 C 
ATOM     29  H   UNL     1     -45.854  30.358  21.586  1.00  0.00     0.067 H 
ATOM     30  C   UNL     1     -48.046  28.658  22.756  1.00  0.00     0.138 C 
ATOM     31  C   UNL     1     -48.916  29.888  22.546  1.00  0.00     0.022 C 
ATOM     32  H   UNL     1     -48.238  31.861  21.874  1.00  0.00     0.063 H 
ATOM     33  H   UNL     1     -47.997  28.033  21.855  1.00  0.00     0.085 H 
ATOM     34  H   UNL     1     -49.830  29.660  21.989  1.00  0.00     0.034 H 
ATOM     35  H   UNL     1     -49.198  30.333  23.506  1.00  0.00     0.034 H 
BRANCH  28  36
ATOM     36  O   UNL     1     -48.008  30.453  20.410  1.00  0.00    -0.390 OA
ATOM     37  H   UNL     1     -47.122  30.630  20.043  1.00  0.00     0.211 HD
ENDBRANCH  28  36
BRANCH  30  38
ATOM     38  N   UNL     1     -48.479  27.794  23.846  1.00  0.00    -0.304 N 
ATOM     39  C   UNL     1     -47.679  27.026  24.657  1.00  0.00     0.023 A 
ATOM     40  C   UNL     1     -49.798  27.577  24.179  1.00  0.00     0.148 A 
ATOM     41  C   UNL     1     -48.497  26.384  25.556  1.00  0.00     0.049 A 
ATOM     42  H   UNL     1     -46.605  27.006  24.536  1.00  0.00     0.083 H 
ATOM     43  C   UNL     1     -49.843  26.713  25.268  1.00  0.00     0.075 A 
ATOM     44  N   UNL     1     -50.857  28.121  23.551  1.00  0.00    -0.218 NA
ATOM     45  Br  UNL     1     -47.919  25.228  26.916  1.00  0.00    -0.048 Br
ATOM     46  C   UNL     1     -51.116  26.396  25.765  1.00  0.00     0.137 A 
ATOM     47  C   UNL     1     -52.016  27.737  24.108  1.00  0.00     0.120 A 
ATOM     48  N   UNL     1     -52.202  26.917  25.160  1.00  0.00    -0.219 NA
ATOM     49  H   UNL     1     -52.919  28.135  23.655  1.00  0.00     0.106 H 
BRANCH  46  50
ATOM     50  N   UNL     1     -51.348  25.557  26.844  1.00  0.00    -0.383 N 
ATOM     51  H   UNL     1     -52.247  25.668  27.292  1.00  0.00     0.158 HD
ATOM     52  H   UNL     1     -50.535  25.483  27.441  1.00  0.00     0.158 HD
ENDBRANCH  46  50
ENDBRANCH  30  38
ENDBRANCH   1  26
TORSDOF 8
ENDMDL
MODEL 5
REMARK VINA RESULT:      -8.9      3.012     10.633
REMARK SMILES Cc1cc(N)c2ccc(OC[C@H]3O[C@@H](n4cc(Br)c5c(N)ncnc54)C[C@@H]3O)cc2n1
REMARK SMILES IDX 11 1 10 4 9 5 2 6 3 7 31 8 4 9 30 11 6 12 29 13 7 14 8 16
REMARK SMILES IDX 1 19 5 23 12 26 13 27 27 28 14 30 26 31 28 36 15 38 16 39
REMARK SMILES IDX 25 40 17 41 19 43 24 44 18 45 20 46 23 47 22 48 21 50
REMARK H PARENT 11 2 11 3 3 10 29 15 7 17 8 18 1 20 1 21 1 22 5 24 5 25 12 29
REMARK H PARENT 27 32 14 33 26 34 26 35 28 37 16 42 23 49 21 51 21 52
REMARK Flexibility Score: inf
ROOT
ATOM      1  C   UNL     1     -47.489  35.384  26.224  1.00  0.00     0.117 C 
ATOM      2  H   UNL     1     -46.539  35.509  25.696  1.00  0.00     0.073 H 
ATOM      3  H   UNL     1     -48.258  35.358  25.443  1.00  0.00     0.073 H 
ENDROOT
BRANCH   1   4
ATOM      4  O   UNL     1     -47.822  36.500  27.053  1.00  0.00    -0.491 OA
BRANCH   4   5
ATOM      5  C   UNL     1     -46.874  37.435  27.351  1.00  0.00     0.121 A 
ATOM      6  C   UNL     1     -44.245  41.300  26.511  1.00  0.00     0.040 A 
ATOM      7  C   UNL     1     -43.522  41.165  27.687  1.00  0.00    -0.017 A 
ATOM      8  N   UNL     1     -45.250  40.464  26.175  1.00  0.00    -0.253 NA
ATOM      9  C   UNL     1     -43.859  40.150  28.582  1.00  0.00     0.043 A 
ATOM     10  H   UNL     1     -42.707  41.848  27.903  1.00  0.00     0.066 H 
ATOM     11  C   UNL     1     -45.532  39.435  26.990  1.00  0.00     0.076 A 
ATOM     12  C   UNL     1     -44.851  39.212  28.206  1.00  0.00     0.023 A 
ATOM     13  C   UNL     1     -46.528  38.550  26.591  1.00  0.00     0.007 A 
ATOM     14  C   UNL     1     -45.198  38.076  28.971  1.00  0.00    -0.047 A 
ATOM     15  H   UNL     1     -47.003  38.761  25.640  1.00  0.00     0.069 H 
ATOM     16  C   UNL     1     -46.200  37.205  28.547  1.00  0.00    -0.019 A 
ATOM     17  H   UNL     1     -44.681  37.850  29.898  1.00  0.00     0.063 H 
ATOM     18  H   UNL     1     -46.449  36.337  29.151  1.00  0.00     0.066 H 
BRANCH   6  19
ATOM     19  C   UNL     1     -43.912  42.396  25.544  1.00  0.00    -0.022 C 
ATOM     20  H   UNL     1     -44.289  42.161  24.543  1.00  0.00     0.030 H 
ATOM     21  H   UNL     1     -42.828  42.526  25.477  1.00  0.00     0.030 H 
ATOM     22  H   UNL     1     -44.369  43.337  25.867  1.00  0.00     0.030 H 
ENDBRANCH   6  19
BRANCH   9  23
ATOM     23  N   UNL     1     -43.055  39.980  29.729  1.00  0.00    -0.398 N 
ATOM     24  H   UNL     1     -42.461  39.158  29.693  1.00  0.00     0.156 HD
ATOM     25  H   UNL     1     -42.530  40.808  29.987  1.00  0.00     0.156 HD
ENDBRANCH   9  23
ENDBRANCH   4   5
ENDBRANCH   1   4
BRANCH   1  26
ATOM     26  C   UNL     1     -47.546  34.054  26.987  1.00  0.00     0.120 C 
ATOM     27  O   UNL     1     -48.703  33.289  26.578  1.00  0.00    -0.348 OA
ATOM     28  C   UNL     1     -46.316  33.174  26.754  1.00  0.00     0.088 C 
ATOM     29  H   UNL     1     -47.678  34.273  28.054  1.00  0.00     0.067 H 
ATOM     30  C   UNL     1     -48.254  31.965  26.210  1.00  0.00     0.138 C 
ATOM     31  C   UNL     1     -46.805  32.132  25.781  1.00  0.00     0.022 C 
ATOM     32  H   UNL     1     -45.437  33.726  26.408  1.00  0.00     0.063 H 
ATOM     33  H   UNL     1     -48.347  31.324  27.095  1.00  0.00     0.085 H 
ATOM     34  H   UNL     1     -46.245  31.193  25.837  1.00  0.00     0.034 H 
ATOM     35  H   UNL     1     -46.744  32.510  24.754  1.00  0.00     0.034 H 
BRANCH  28  36
ATOM     36  O   UNL     1     -45.955  32.524  27.979  1.00  0.00    -0.390 OA
ATOM     37  H   UNL     1     -46.170  31.578  27.884  1.00  0.00     0.211 HD
ENDBRANCH  28  36
BRANCH  30  38
ATOM     38  N   UNL     1     -49.124  31.400  25.186  1.00  0.00    -0.304 N 
ATOM     39  C   UNL     1     -49.945  32.091  24.329  1.00  0.00     0.023 A 
ATOM     40  C   UNL     1     -49.290  30.049  24.977  1.00  0.00     0.148 A 
ATOM     41  C   UNL     1     -50.571  31.170  23.524  1.00  0.00     0.049 A 
ATOM     42  H   UNL     1     -50.010  33.170  24.355  1.00  0.00     0.083 H 
ATOM     43  C   UNL     1     -50.176  29.870  23.920  1.00  0.00     0.075 A 
ATOM     44  N   UNL     1     -48.685  29.074  25.680  1.00  0.00    -0.218 NA
ATOM     45  Br  UNL     1     -51.783  31.575  22.150  1.00  0.00    -0.048 Br
ATOM     46  C   UNL     1     -50.448  28.546  23.546  1.00  0.00     0.137 A 
ATOM     47  C   UNL     1     -49.030  27.855  25.239  1.00  0.00     0.120 A 
ATOM     48  N   UNL     1     -49.865  27.541  24.231  1.00  0.00    -0.219 NA
ATOM     49  H   UNL     1     -48.582  27.014  25.759  1.00  0.00     0.106 H 
BRANCH  46  50
ATOM     50  N   UNL     1     -51.301  28.183  22.515  1.00  0.00    -0.383 N 
ATOM     51  H   UNL     1     -51.702  28.952  21.996  1.00  0.00     0.158 HD
ATOM     52  H   UNL     1     -51.921  27.433  22.790  1.00  0.00     0.158 HD
ENDBRANCH  46  50
ENDBRANCH  30  38
ENDBRANCH   1  26
TORSDOF 8
ENDMDL
MODEL 6
REMARK VINA RESULT:      -8.9      3.052     10.093
REMARK SMILES Cc1cc(N)c2ccc(OC[C@H]3O[C@@H](n4cc(Br)c5c(N)ncnc54)C[C@@H]3O)cc2n1
REMARK SMILES IDX 11 1 10 4 9 5 2 6 3 7 31 8 4 9 30 11 6 12 29 13 7 14 8 16
REMARK SMILES IDX 1 19 5 23 12 26 13 27 27 28 14 30 26 31 28 36 15 38 16 39
REMARK SMILES IDX 25 40 17 41 19 43 24 44 18 45 20 46 23 47 22 48 21 50
REMARK H PARENT 11 2 11 3 3 10 29 15 7 17 8 18 1 20 1 21 1 22 5 24 5 25 12 29
REMARK H PARENT 27 32 14 33 26 34 26 35 28 37 16 42 23 49 21 51 21 52
REMARK Flexibility Score: inf
ROOT
ATOM      1  C   UNL     1     -47.929  35.314  26.593  1.00  0.00     0.117 C 
ATOM      2  H   UNL     1     -47.206  35.615  25.830  1.00  0.00     0.073 H 
ATOM      3  H   UNL     1     -48.915  35.448  26.132  1.00  0.00     0.073 H 
ENDROOT
BRANCH   1   4
ATOM      4  O   UNL     1     -47.925  36.167  27.741  1.00  0.00    -0.491 OA
BRANCH   4   5
ATOM      5  C   UNL     1     -46.990  37.155  27.852  1.00  0.00     0.121 A 
ATOM      6  C   UNL     1     -44.574  40.965  26.365  1.00  0.00     0.040 A 
ATOM      7  C   UNL     1     -43.756  40.986  27.485  1.00  0.00    -0.017 A 
ATOM      8  N   UNL     1     -45.572  40.069  26.210  1.00  0.00    -0.253 NA
ATOM      9  C   UNL     1     -43.985  40.073  28.515  1.00  0.00     0.043 A 
ATOM     10  H   UNL     1     -42.951  41.711  27.555  1.00  0.00     0.066 H 
ATOM     11  C   UNL     1     -45.752  39.134  27.157  1.00  0.00     0.076 A 
ATOM     12  C   UNL     1     -44.970  39.072  28.331  1.00  0.00     0.023 A 
ATOM     13  C   UNL     1     -46.744  38.183  26.945  1.00  0.00     0.007 A 
ATOM     14  C   UNL     1     -45.215  38.023  29.245  1.00  0.00    -0.047 A 
ATOM     15  H   UNL     1     -47.299  38.270  26.018  1.00  0.00     0.069 H 
ATOM     16  C   UNL     1     -46.216  37.083  29.006  1.00  0.00    -0.019 A 
ATOM     17  H   UNL     1     -44.619  37.920  30.146  1.00  0.00     0.063 H 
ATOM     18  H   UNL     1     -46.386  36.285  29.724  1.00  0.00     0.066 H 
BRANCH   6  19
ATOM     19  C   UNL     1     -44.358  41.949  25.256  1.00  0.00    -0.022 C 
ATOM     20  H   UNL     1     -45.262  42.059  24.650  1.00  0.00     0.030 H 
ATOM     21  H   UNL     1     -43.549  41.611  24.602  1.00  0.00     0.030 H 
ATOM     22  H   UNL     1     -44.101  42.931  25.667  1.00  0.00     0.030 H 
ENDBRANCH   6  19
BRANCH   9  23
ATOM     23  N   UNL     1     -43.089  40.058  29.603  1.00  0.00    -0.398 N 
ATOM     24  H   UNL     1     -42.305  39.423  29.479  1.00  0.00     0.156 HD
ATOM     25  H   UNL     1     -42.778  40.979  29.891  1.00  0.00     0.156 HD
ENDBRANCH   9  23
ENDBRANCH   4   5
ENDBRANCH   1   4
BRANCH   1  26
ATOM     26  C   UNL     1     -47.780  33.834  26.969  1.00  0.00     0.120 C 
ATOM     27  O   UNL     1     -48.685  33.023  26.185  1.00  0.00    -0.348 OA
ATOM     28  C   UNL     1     -46.368  33.293  26.731  1.00  0.00     0.088 C 
ATOM     29  H   UNL     1     -48.078  33.711  28.017  1.00  0.00     0.067 H 
ATOM     30  C   UNL     1     -47.917  31.963  25.571  1.00  0.00     0.138 C 
ATOM     31  C   UNL     1     -46.500  32.504  25.454  1.00  0.00     0.022 C 
ATOM     32  H   UNL     1     -45.598  34.070  26.694  1.00  0.00     0.063 H 
ATOM     33  H   UNL     1     -47.967  31.089  26.233  1.00  0.00     0.085 H 
ATOM     34  H   UNL     1     -45.757  31.705  25.362  1.00  0.00     0.034 H 
ATOM     35  H   UNL     1     -46.406  33.164  24.585  1.00  0.00     0.034 H 
BRANCH  28  36
ATOM     36  O   UNL     1     -46.016  32.396  27.791  1.00  0.00    -0.390 OA
ATOM     37  H   UNL     1     -46.021  31.493  27.425  1.00  0.00     0.211 HD
ENDBRANCH  28  36
BRANCH  30  38
ATOM     38  N   UNL     1     -48.517  31.568  24.303  1.00  0.00    -0.304 N 
ATOM     39  C   UNL     1     -49.852  31.371  24.049  1.00  0.00     0.023 A 
ATOM     40  C   UNL     1     -47.794  31.268  23.170  1.00  0.00     0.148 A 
ATOM     41  C   UNL     1     -49.974  31.023  22.726  1.00  0.00     0.049 A 
ATOM     42  H   UNL     1     -50.600  31.504  24.820  1.00  0.00     0.083 H 
ATOM     43  C   UNL     1     -48.683  30.945  22.150  1.00  0.00     0.075 A 
ATOM     44  N   UNL     1     -46.451  31.293  23.075  1.00  0.00    -0.218 NA
ATOM     45  Br  UNL     1     -51.590  30.669  21.841  1.00  0.00    -0.048 Br
ATOM     46  C   UNL     1     -48.122  30.633  20.903  1.00  0.00     0.137 A 
ATOM     47  C   UNL     1     -46.034  30.967  21.843  1.00  0.00     0.120 A 
ATOM     48  N   UNL     1     -46.780  30.642  20.771  1.00  0.00    -0.219 NA
ATOM     49  H   UNL     1     -44.960  30.965  21.688  1.00  0.00     0.106 H 
BRANCH  46  50
ATOM     50  N   UNL     1     -48.856  30.293  19.778  1.00  0.00    -0.383 N 
ATOM     51  H   UNL     1     -49.227  31.072  19.252  1.00  0.00     0.158 HD
ATOM     52  H   UNL     1     -49.478  29.515  19.959  1.00  0.00     0.158 HD
ENDBRANCH  46  50
ENDBRANCH  30  38
ENDBRANCH   1  26
TORSDOF 8
ENDMDL
MODEL 7
REMARK VINA RESULT:      -8.9      1.746      2.861
REMARK SMILES Cc1cc(N)c2ccc(OC[C@H]3O[C@@H](n4cc(Br)c5c(N)ncnc54)C[C@@H]3O)cc2n1
REMARK SMILES IDX 11 1 10 4 9 5 2 6 3 7 31 8 4 9 30 11 6 12 29 13 7 14 8 16
REMARK SMILES IDX 1 19 5 23 12 26 13 27 27 28 14 30 26 31 28 36 15 38 16 39
REMARK SMILES IDX 25 40 17 41 19 43 24 44 18 45 20 46 23 47 22 48 21 50
REMARK H PARENT 11 2 11 3 3 10 29 15 7 17 8 18 1 20 1 21 1 22 5 24 5 25 12 29
REMARK H PARENT 27 32 14 33 26 34 26 35 28 37 16 42 23 49 21 51 21 52
REMARK Flexibility Score: inf
ROOT
ATOM      1  C   UNL     1     -46.447  35.335  28.235  1.00  0.00     0.117 C 
ATOM      2  H   UNL     1     -45.486  35.211  28.741  1.00  0.00     0.073 H 
ATOM      3  H   UNL     1     -47.050  34.469  28.534  1.00  0.00     0.073 H 
ENDROOT
BRANCH   1   4
ATOM      4  O   UNL     1     -46.348  35.258  26.810  1.00  0.00    -0.491 OA
BRANCH   4   5
ATOM      5  C   UNL     1     -46.853  34.175  26.150  1.00  0.00     0.121 A 
ATOM      6  C   UNL     1     -46.649  30.497  23.153  1.00  0.00     0.040 A 
ATOM      7  C   UNL     1     -47.986  30.174  23.326  1.00  0.00    -0.017 A 
ATOM      8  N   UNL     1     -46.050  31.504  23.823  1.00  0.00    -0.253 NA
ATOM      9  C   UNL     1     -48.745  30.889  24.253  1.00  0.00     0.043 A 
ATOM     10  H   UNL     1     -48.429  29.370  22.748  1.00  0.00     0.066 H 
ATOM     11  C   UNL     1     -46.790  32.251  24.658  1.00  0.00     0.076 A 
ATOM     12  C   UNL     1     -48.158  32.003  24.900  1.00  0.00     0.023 A 
ATOM     13  C   UNL     1     -46.166  33.323  25.289  1.00  0.00     0.007 A 
ATOM     14  C   UNL     1     -48.855  32.875  25.766  1.00  0.00    -0.047 A 
ATOM     15  H   UNL     1     -45.120  33.475  25.051  1.00  0.00     0.069 H 
ATOM     16  C   UNL     1     -48.205  33.942  26.385  1.00  0.00    -0.019 A 
ATOM     17  H   UNL     1     -49.914  32.739  25.958  1.00  0.00     0.063 H 
ATOM     18  H   UNL     1     -48.762  34.599  27.047  1.00  0.00     0.066 H 
BRANCH   6  19
ATOM     19  C   UNL     1     -45.809  29.728  22.177  1.00  0.00    -0.022 C 
ATOM     20  H   UNL     1     -44.947  29.276  22.676  1.00  0.00     0.030 H 
ATOM     21  H   UNL     1     -45.437  30.393  21.392  1.00  0.00     0.030 H 
ATOM     22  H   UNL     1     -46.399  28.927  21.720  1.00  0.00     0.030 H 
ENDBRANCH   6  19
BRANCH   9  23
ATOM     23  N   UNL     1     -50.123  30.600  24.350  1.00  0.00    -0.398 N 
ATOM     24  H   UNL     1     -50.608  31.151  25.051  1.00  0.00     0.156 HD
ATOM     25  H   UNL     1     -50.609  30.618  23.461  1.00  0.00     0.156 HD
ENDBRANCH   9  23
ENDBRANCH   4   5
ENDBRANCH   1   4
BRANCH   1  26
ATOM     26  C   UNL     1     -47.178  36.601  28.699  1.00  0.00     0.120 C 
ATOM     27  O   UNL     1     -46.232  37.570  29.208  1.00  0.00    -0.348 OA
ATOM     28  C   UNL     1     -47.966  37.285  27.579  1.00  0.00     0.088 C 
ATOM     29  H   UNL     1     -47.834  36.336  29.537  1.00  0.00     0.067 H 
ATOM     30  C   UNL     1     -46.472  38.825  28.532  1.00  0.00     0.138 C 
ATOM     31  C   UNL     1     -47.096  38.455  27.196  1.00  0.00     0.022 C 
ATOM     32  H   UNL     1     -48.209  36.622  26.743  1.00  0.00     0.063 H 
ATOM     33  H   UNL     1     -47.158  39.412  29.155  1.00  0.00     0.085 H 
ATOM     34  H   UNL     1     -47.658  39.285  26.756  1.00  0.00     0.034 H 
ATOM     35  H   UNL     1     -46.327  38.142  26.481  1.00  0.00     0.034 H 
BRANCH  28  36
ATOM     36  O   UNL     1     -49.203  37.784  28.101  1.00  0.00    -0.390 OA
ATOM     37  H   UNL     1     -49.702  37.024  28.452  1.00  0.00     0.211 HD
ENDBRANCH  28  36
BRANCH  30  38
ATOM     38  N   UNL     1     -45.236  39.591  28.428  1.00  0.00    -0.304 N 
ATOM     39  C   UNL     1     -44.174  39.565  29.299  1.00  0.00     0.023 A 
ATOM     40  C   UNL     1     -44.988  40.521  27.443  1.00  0.00     0.148 A 
ATOM     41  C   UNL     1     -43.220  40.425  28.812  1.00  0.00     0.049 A 
ATOM     42  H   UNL     1     -44.180  38.935  30.178  1.00  0.00     0.083 H 
ATOM     43  C   UNL     1     -43.715  41.047  27.641  1.00  0.00     0.075 A 
ATOM     44  N   UNL     1     -45.839  40.852  26.454  1.00  0.00    -0.218 NA
ATOM     45  Br  UNL     1     -41.548  40.750  29.600  1.00  0.00    -0.048 Br
ATOM     46  C   UNL     1     -43.278  42.000  26.710  1.00  0.00     0.137 A 
ATOM     47  C   UNL     1     -45.315  41.777  25.636  1.00  0.00     0.120 A 
ATOM     48  N   UNL     1     -44.105  42.361  25.708  1.00  0.00    -0.219 NA
ATOM     49  H   UNL     1     -45.945  42.097  24.812  1.00  0.00     0.106 H 
BRANCH  46  50
ATOM     50  N   UNL     1     -42.041  42.624  26.751  1.00  0.00    -0.383 N 
ATOM     51  H   UNL     1     -41.733  42.912  27.670  1.00  0.00     0.158 HD
ATOM     52  H   UNL     1     -41.930  43.285  25.994  1.00  0.00     0.158 HD
ENDBRANCH  46  50
ENDBRANCH  30  38
ENDBRANCH   1  26
TORSDOF 8
ENDMDL
