MODEL 1
REMARK VINA RESULT:     -10.5      0.000      0.000
REMARK SMILES O=C(NCc1ccc2cc(CN3CC(O)C3)[nH]c2c1)c1cc(=O)n2ccccc2n1
REMARK SMILES IDX 5 1 6 2 7 3 8 4 9 5 10 6 17 7 18 8 19 9 4 15 3 18 1 19 2 20
REMARK SMILES IDX 20 22 21 23 30 24 22 25 29 27 23 28 24 29 28 30 25 31 27 32
REMARK SMILES IDX 26 34 11 38 12 41 13 42 16 43 14 44 15 50
REMARK H PARENT 6 10 7 11 9 12 17 13 19 14 4 16 4 17 3 21 21 26 28 33 25 35
REMARK H PARENT 27 36 26 37 11 39 11 40 13 45 13 46 16 47 16 48 14 49 15 51
REMARK Flexibility Score: inf
ROOT
ATOM      1  C   UNL     1     -47.872  34.738  26.560  1.00  0.00    -0.027 A 
ATOM      2  C   UNL     1     -46.583  34.634  26.023  1.00  0.00    -0.057 A 
ATOM      3  C   UNL     1     -46.210  33.529  25.245  1.00  0.00    -0.052 A 
ATOM      4  C   UNL     1     -47.146  32.505  25.009  1.00  0.00    -0.000 A 
ATOM      5  C   UNL     1     -47.110  31.278  24.294  1.00  0.00    -0.032 A 
ATOM      6  C   UNL     1     -48.350  30.678  24.399  1.00  0.00     0.030 A 
ATOM      7  N   UNL     1     -49.122  31.497  25.191  1.00  0.00    -0.357 N 
ATOM      8  C   UNL     1     -48.419  32.620  25.562  1.00  0.00     0.046 A 
ATOM      9  C   UNL     1     -48.810  33.715  26.342  1.00  0.00    -0.033 A 
ATOM     10  H   UNL     1     -45.851  35.419  26.202  1.00  0.00     0.063 H 
ATOM     11  H   UNL     1     -45.209  33.465  24.830  1.00  0.00     0.063 H 
ATOM     12  H   UNL     1     -46.262  30.879  23.751  1.00  0.00     0.065 H 
ATOM     13  H   UNL     1     -50.081  31.314  25.453  1.00  0.00     0.166 HD
ATOM     14  H   UNL     1     -49.807  33.772  26.767  1.00  0.00     0.065 H 
ENDROOT
BRANCH   1  15
ATOM     15  C   UNL     1     -48.243  35.921  27.418  1.00  0.00     0.043 C 
ATOM     16  H   UNL     1     -49.171  36.383  27.067  1.00  0.00     0.054 H 
ATOM     17  H   UNL     1     -48.418  35.608  28.455  1.00  0.00     0.054 H 
BRANCH  15  18
ATOM     18  N   UNL     1     -47.204  36.915  27.392  1.00  0.00    -0.347 N 
ATOM     19  O   UNL     1     -46.618  36.705  29.601  1.00  0.00    -0.268 OA
ATOM     20  C   UNL     1     -46.501  37.262  28.517  1.00  0.00     0.270 C 
ATOM     21  H   UNL     1     -47.084  37.505  26.575  1.00  0.00     0.164 HD
BRANCH  20  22
ATOM     22  C   UNL     1     -45.565  38.422  28.277  1.00  0.00     0.136 A 
ATOM     23  C   UNL     1     -45.764  39.126  27.161  1.00  0.00     0.035 A 
ATOM     24  N   UNL     1     -44.578  38.678  29.202  1.00  0.00    -0.225 NA
ATOM     25  C   UNL     1     -44.875  40.262  26.889  1.00  0.00     0.258 A 
ATOM     26  H   UNL     1     -46.544  38.914  26.440  1.00  0.00     0.071 H 
ATOM     27  C   UNL     1     -43.794  39.683  28.956  1.00  0.00     0.140 A 
ATOM     28  O   UNL     1     -45.053  40.918  25.863  1.00  0.00    -0.269 OA
ATOM     29  N   UNL     1     -43.890  40.500  27.836  1.00  0.00    -0.268 N 
ATOM     30  C   UNL     1     -42.712  39.998  29.932  1.00  0.00    -0.019 A 
ATOM     31  C   UNL     1     -43.010  41.560  27.646  1.00  0.00     0.014 A 
ATOM     32  C   UNL     1     -41.888  41.029  29.705  1.00  0.00    -0.057 A 
ATOM     33  H   UNL     1     -42.630  39.368  30.808  1.00  0.00     0.066 H 
ATOM     34  C   UNL     1     -42.039  41.837  28.525  1.00  0.00    -0.045 A 
ATOM     35  H   UNL     1     -43.142  42.157  26.747  1.00  0.00     0.082 H 
ATOM     36  H   UNL     1     -41.094  41.275  30.403  1.00  0.00     0.062 H 
ATOM     37  H   UNL     1     -41.357  42.667  28.366  1.00  0.00     0.064 H 
ENDBRANCH  20  22
ENDBRANCH  15  18
ENDBRANCH   1  15
BRANCH   6  38
ATOM     38  C   UNL     1     -48.867  29.377  23.874  1.00  0.00     0.039 C 
ATOM     39  H   UNL     1     -48.537  29.268  22.832  1.00  0.00     0.050 H 
ATOM     40  H   UNL     1     -49.961  29.433  23.820  1.00  0.00     0.050 H 
BRANCH  38  41
ATOM     41  N   UNL     1     -48.504  28.146  24.576  1.00  0.00    -0.292 NA
ATOM     42  C   UNL     1     -49.450  27.028  24.368  1.00  0.00     0.026 C 
ATOM     43  C   UNL     1     -48.803  28.113  26.023  1.00  0.00     0.026 C 
ATOM     44  C   UNL     1     -49.184  26.617  25.842  1.00  0.00     0.079 C 
ATOM     45  H   UNL     1     -49.125  26.297  23.622  1.00  0.00     0.046 H 
ATOM     46  H   UNL     1     -50.496  27.283  24.171  1.00  0.00     0.046 H 
ATOM     47  H   UNL     1     -49.636  28.722  26.388  1.00  0.00     0.046 H 
ATOM     48  H   UNL     1     -47.935  28.293  26.665  1.00  0.00     0.046 H 
ATOM     49  H   UNL     1     -48.329  25.939  25.949  1.00  0.00     0.063 H 
BRANCH  44  50
ATOM     50  O   UNL     1     -50.314  26.129  26.596  1.00  0.00    -0.390 OA
ATOM     51  H   UNL     1     -51.082  26.587  26.215  1.00  0.00     0.211 HD
ENDBRANCH  44  50
ENDBRANCH  38  41
ENDBRANCH   6  38
TORSDOF 6
ENDMDL
MODEL 2
REMARK VINA RESULT:      -9.9      2.147      2.534
REMARK SMILES O=C(NCc1ccc2cc(CN3CC(O)C3)[nH]c2c1)c1cc(=O)n2ccccc2n1
REMARK SMILES IDX 5 1 6 2 7 3 8 4 9 5 10 6 17 7 18 8 19 9 4 15 3 18 1 19 2 20
REMARK SMILES IDX 20 22 21 23 30 24 22 25 29 27 23 28 24 29 28 30 25 31 27 32
REMARK SMILES IDX 26 34 11 38 12 41 13 42 16 43 14 44 15 50
REMARK H PARENT 6 10 7 11 9 12 17 13 19 14 4 16 4 17 3 21 21 26 28 33 25 35
REMARK H PARENT 27 36 26 37 11 39 11 40 13 45 13 46 16 47 16 48 14 49 15 51
REMARK Flexibility Score: inf
ROOT
ATOM      1  C   UNL     1     -47.741  35.219  26.814  1.00  0.00    -0.027 A 
ATOM      2  C   UNL     1     -46.452  35.105  26.280  1.00  0.00    -0.057 A 
ATOM      3  C   UNL     1     -46.081  33.992  25.512  1.00  0.00    -0.052 A 
ATOM      4  C   UNL     1     -47.020  32.970  25.282  1.00  0.00    -0.000 A 
ATOM      5  C   UNL     1     -46.987  31.738  24.576  1.00  0.00    -0.032 A 
ATOM      6  C   UNL     1     -48.231  31.144  24.682  1.00  0.00     0.030 A 
ATOM      7  N   UNL     1     -49.002  31.972  25.466  1.00  0.00    -0.357 N 
ATOM      8  C   UNL     1     -48.295  33.095  25.830  1.00  0.00     0.046 A 
ATOM      9  C   UNL     1     -48.683  34.198  26.600  1.00  0.00    -0.033 A 
ATOM     10  H   UNL     1     -45.716  35.887  26.456  1.00  0.00     0.063 H 
ATOM     11  H   UNL     1     -45.079  33.921  25.101  1.00  0.00     0.063 H 
ATOM     12  H   UNL     1     -46.140  31.331  24.039  1.00  0.00     0.065 H 
ATOM     13  H   UNL     1     -49.962  31.796  25.727  1.00  0.00     0.166 HD
ATOM     14  H   UNL     1     -49.681  34.262  27.022  1.00  0.00     0.065 H 
ENDROOT
BRANCH   1  15
ATOM     15  C   UNL     1     -48.109  36.409  27.662  1.00  0.00     0.043 C 
ATOM     16  H   UNL     1     -48.988  36.922  27.255  1.00  0.00     0.054 H 
ATOM     17  H   UNL     1     -48.370  36.095  28.680  1.00  0.00     0.054 H 
BRANCH  15  18
ATOM     18  N   UNL     1     -47.023  37.350  27.719  1.00  0.00    -0.347 N 
ATOM     19  O   UNL     1     -48.338  39.231  27.733  1.00  0.00    -0.268 OA
ATOM     20  C   UNL     1     -47.232  38.705  27.701  1.00  0.00     0.270 C 
ATOM     21  H   UNL     1     -46.066  37.030  27.603  1.00  0.00     0.164 HD
BRANCH  20  22
ATOM     22  C   UNL     1     -45.943  39.487  27.628  1.00  0.00     0.136 A 
ATOM     23  C   UNL     1     -45.755  40.223  26.530  1.00  0.00     0.035 A 
ATOM     24  N   UNL     1     -45.052  39.394  28.673  1.00  0.00    -0.225 NA
ATOM     25  C   UNL     1     -44.515  40.999  26.418  1.00  0.00     0.258 A 
ATOM     26  H   UNL     1     -46.464  40.287  25.714  1.00  0.00     0.071 H 
ATOM     27  C   UNL     1     -43.956  40.081  28.568  1.00  0.00     0.140 A 
ATOM     28  O   UNL     1     -44.334  41.683  25.411  1.00  0.00    -0.269 OA
ATOM     29  N   UNL     1     -43.634  40.890  27.484  1.00  0.00    -0.268 N 
ATOM     30  C   UNL     1     -42.963  40.012  29.678  1.00  0.00    -0.019 A 
ATOM     31  C   UNL     1     -42.437  41.595  27.449  1.00  0.00     0.014 A 
ATOM     32  C   UNL     1     -41.824  40.710  29.599  1.00  0.00    -0.057 A 
ATOM     33  H   UNL     1     -43.205  39.386  30.527  1.00  0.00     0.066 H 
ATOM     34  C   UNL     1     -41.549  41.528  28.449  1.00  0.00    -0.045 A 
ATOM     35  H   UNL     1     -42.249  42.208  26.570  1.00  0.00     0.082 H 
ATOM     36  H   UNL     1     -41.088  40.673  30.396  1.00  0.00     0.062 H 
ATOM     37  H   UNL     1     -40.616  42.084  28.410  1.00  0.00     0.064 H 
ENDBRANCH  20  22
ENDBRANCH  15  18
ENDBRANCH   1  15
BRANCH   6  38
ATOM     38  C   UNL     1     -48.751  29.841  24.166  1.00  0.00     0.039 C 
ATOM     39  H   UNL     1     -49.622  29.552  24.771  1.00  0.00     0.050 H 
ATOM     40  H   UNL     1     -48.001  29.064  24.361  1.00  0.00     0.050 H 
BRANCH  38  41
ATOM     41  N   UNL     1     -49.149  29.753  22.761  1.00  0.00    -0.292 NA
ATOM     42  C   UNL     1     -48.027  29.869  21.805  1.00  0.00     0.026 C 
ATOM     43  C   UNL     1     -49.752  30.971  22.182  1.00  0.00     0.026 C 
ATOM     44  C   UNL     1     -48.994  30.639  20.866  1.00  0.00     0.079 C 
ATOM     45  H   UNL     1     -47.670  28.912  21.413  1.00  0.00     0.046 H 
ATOM     46  H   UNL     1     -47.160  30.461  22.114  1.00  0.00     0.046 H 
ATOM     47  H   UNL     1     -49.463  31.938  22.605  1.00  0.00     0.046 H 
ATOM     48  H   UNL     1     -50.843  30.940  22.105  1.00  0.00     0.046 H 
ATOM     49  H   UNL     1     -49.560  29.977  20.198  1.00  0.00     0.063 H 
BRANCH  44  50
ATOM     50  O   UNL     1     -48.439  31.748  20.127  1.00  0.00    -0.390 OA
ATOM     51  H   UNL     1     -48.572  31.514  19.194  1.00  0.00     0.211 HD
ENDBRANCH  44  50
ENDBRANCH  38  41
ENDBRANCH   6  38
TORSDOF 6
ENDMDL
MODEL 3
REMARK VINA RESULT:      -9.8      2.316      2.963
REMARK SMILES O=C(NCc1ccc2cc(CN3CC(O)C3)[nH]c2c1)c1cc(=O)n2ccccc2n1
REMARK SMILES IDX 5 1 6 2 7 3 8 4 9 5 10 6 17 7 18 8 19 9 4 15 3 18 1 19 2 20
REMARK SMILES IDX 20 22 21 23 30 24 22 25 29 27 23 28 24 29 28 30 25 31 27 32
REMARK SMILES IDX 26 34 11 38 12 41 13 42 16 43 14 44 15 50
REMARK H PARENT 6 10 7 11 9 12 17 13 19 14 4 16 4 17 3 21 21 26 28 33 25 35
REMARK H PARENT 27 36 26 37 11 39 11 40 13 45 13 46 16 47 16 48 14 49 15 51
REMARK Flexibility Score: inf
ROOT
ATOM      1  C   UNL     1     -47.805  35.504  26.917  1.00  0.00    -0.027 A 
ATOM      2  C   UNL     1     -46.536  35.300  26.360  1.00  0.00    -0.057 A 
ATOM      3  C   UNL     1     -46.247  34.146  25.619  1.00  0.00    -0.052 A 
ATOM      4  C   UNL     1     -47.248  33.173  25.439  1.00  0.00    -0.000 A 
ATOM      5  C   UNL     1     -47.302  31.921  24.771  1.00  0.00    -0.032 A 
ATOM      6  C   UNL     1     -48.575  31.404  24.921  1.00  0.00     0.030 A 
ATOM      7  N   UNL     1     -49.279  32.297  25.695  1.00  0.00    -0.357 N 
ATOM      8  C   UNL     1     -48.501  33.387  26.010  1.00  0.00     0.046 A 
ATOM      9  C   UNL     1     -48.807  34.533  26.754  1.00  0.00    -0.033 A 
ATOM     10  H   UNL     1     -45.754  36.044  26.496  1.00  0.00     0.063 H 
ATOM     11  H   UNL     1     -45.260  34.005  25.188  1.00  0.00     0.063 H 
ATOM     12  H   UNL     1     -46.491  31.450  24.229  1.00  0.00     0.065 H 
ATOM     13  H   UNL     1     -50.241  32.184  25.981  1.00  0.00     0.166 HD
ATOM     14  H   UNL     1     -49.791  34.667  27.195  1.00  0.00     0.065 H 
ENDROOT
BRANCH   1  15
ATOM     15  C   UNL     1     -48.085  36.738  27.735  1.00  0.00     0.043 C 
ATOM     16  H   UNL     1     -48.952  37.279  27.343  1.00  0.00     0.054 H 
ATOM     17  H   UNL     1     -48.322  36.470  28.772  1.00  0.00     0.054 H 
BRANCH  15  18
ATOM     18  N   UNL     1     -46.954  37.626  27.722  1.00  0.00    -0.347 N 
ATOM     19  O   UNL     1     -46.222  37.112  29.836  1.00  0.00    -0.268 OA
ATOM     20  C   UNL     1     -46.133  37.776  28.810  1.00  0.00     0.270 C 
ATOM     21  H   UNL     1     -46.837  38.291  26.963  1.00  0.00     0.164 HD
BRANCH  20  22
ATOM     22  C   UNL     1     -45.103  38.861  28.611  1.00  0.00     0.136 A 
ATOM     23  C   UNL     1     -44.188  38.996  29.574  1.00  0.00     0.035 A 
ATOM     24  N   UNL     1     -45.167  39.634  27.474  1.00  0.00    -0.225 NA
ATOM     25  C   UNL     1     -43.168  40.040  29.420  1.00  0.00     0.258 A 
ATOM     26  H   UNL     1     -44.148  38.382  30.464  1.00  0.00     0.071 H 
ATOM     27  C   UNL     1     -44.264  40.556  27.344  1.00  0.00     0.140 A 
ATOM     28  O   UNL     1     -42.319  40.171  30.302  1.00  0.00    -0.269 OA
ATOM     29  N   UNL     1     -43.254  40.806  28.266  1.00  0.00    -0.268 N 
ATOM     30  C   UNL     1     -44.294  41.418  26.127  1.00  0.00    -0.019 A 
ATOM     31  C   UNL     1     -42.322  41.815  28.052  1.00  0.00     0.014 A 
ATOM     32  C   UNL     1     -43.374  42.377  25.965  1.00  0.00    -0.057 A 
ATOM     33  H   UNL     1     -45.076  41.231  25.402  1.00  0.00     0.066 H 
ATOM     34  C   UNL     1     -42.355  42.585  26.957  1.00  0.00    -0.045 A 
ATOM     35  H   UNL     1     -41.559  41.954  28.815  1.00  0.00     0.082 H 
ATOM     36  H   UNL     1     -43.380  43.014  25.086  1.00  0.00     0.062 H 
ATOM     37  H   UNL     1     -41.622  43.370  26.800  1.00  0.00     0.064 H 
ENDBRANCH  20  22
ENDBRANCH  15  18
ENDBRANCH   1  15
BRANCH   6  38
ATOM     38  C   UNL     1     -49.180  30.118  24.456  1.00  0.00     0.039 C 
ATOM     39  H   UNL     1     -50.023  29.873  25.117  1.00  0.00     0.050 H 
ATOM     40  H   UNL     1     -48.452  29.313  24.615  1.00  0.00     0.050 H 
BRANCH  38  41
ATOM     41  N   UNL     1     -49.668  30.032  23.080  1.00  0.00    -0.292 NA
ATOM     42  C   UNL     1     -48.603  29.848  22.069  1.00  0.00     0.026 C 
ATOM     43  C   UNL     1     -50.036  31.312  22.442  1.00  0.00     0.026 C 
ATOM     44  C   UNL     1     -49.441  30.748  21.121  1.00  0.00     0.079 C 
ATOM     45  H   UNL     1     -48.478  28.815  21.732  1.00  0.00     0.046 H 
ATOM     46  H   UNL     1     -47.615  30.260  22.298  1.00  0.00     0.046 H 
ATOM     47  H   UNL     1     -49.526  32.220  22.781  1.00  0.00     0.046 H 
ATOM     48  H   UNL     1     -51.111  31.509  22.415  1.00  0.00     0.046 H 
ATOM     49  H   UNL     1     -50.170  30.182  20.528  1.00  0.00     0.063 H 
BRANCH  44  50
ATOM     50  O   UNL     1     -48.710  31.667  20.281  1.00  0.00    -0.390 OA
ATOM     51  H   UNL     1     -47.911  31.180  20.020  1.00  0.00     0.211 HD
ENDBRANCH  44  50
ENDBRANCH  38  41
ENDBRANCH   6  38
TORSDOF 6
ENDMDL
MODEL 4
REMARK VINA RESULT:      -9.6      1.522      2.026
REMARK SMILES O=C(NCc1ccc2cc(CN3CC(O)C3)[nH]c2c1)c1cc(=O)n2ccccc2n1
REMARK SMILES IDX 5 1 6 2 7 3 8 4 9 5 10 6 17 7 18 8 19 9 4 15 3 18 1 19 2 20
REMARK SMILES IDX 20 22 21 23 30 24 22 25 29 27 23 28 24 29 28 30 25 31 27 32
REMARK SMILES IDX 26 34 11 38 12 41 13 42 16 43 14 44 15 50
REMARK H PARENT 6 10 7 11 9 12 17 13 19 14 4 16 4 17 3 21 21 26 28 33 25 35
REMARK H PARENT 27 36 26 37 11 39 11 40 13 45 13 46 16 47 16 48 14 49 15 51
REMARK Flexibility Score: inf
ROOT
ATOM      1  C   UNL     1     -48.066  34.273  26.308  1.00  0.00    -0.027 A 
ATOM      2  C   UNL     1     -46.741  34.284  25.854  1.00  0.00    -0.057 A 
ATOM      3  C   UNL     1     -46.236  33.239  25.069  1.00  0.00    -0.052 A 
ATOM      4  C   UNL     1     -47.073  32.158  24.739  1.00  0.00    -0.000 A 
ATOM      5  C   UNL     1     -46.898  30.964  23.989  1.00  0.00    -0.032 A 
ATOM      6  C   UNL     1     -48.094  30.271  23.991  1.00  0.00     0.030 A 
ATOM      7  N   UNL     1     -48.975  31.001  24.756  1.00  0.00    -0.357 N 
ATOM      8  C   UNL     1     -48.385  32.158  25.208  1.00  0.00     0.046 A 
ATOM      9  C   UNL     1     -48.907  33.192  25.995  1.00  0.00    -0.033 A 
ATOM     10  H   UNL     1     -46.083  35.113  26.107  1.00  0.00     0.063 H 
ATOM     11  H   UNL     1     -45.208  33.265  24.720  1.00  0.00     0.063 H 
ATOM     12  H   UNL     1     -45.989  30.649  23.491  1.00  0.00     0.065 H 
ATOM     13  H   UNL     1     -49.932  30.738  24.948  1.00  0.00     0.166 HD
ATOM     14  H   UNL     1     -49.931  33.160  26.355  1.00  0.00     0.065 H 
ENDROOT
BRANCH   1  15
ATOM     15  C   UNL     1     -48.579  35.393  27.177  1.00  0.00     0.043 C 
ATOM     16  H   UNL     1     -49.380  35.944  26.672  1.00  0.00     0.054 H 
ATOM     17  H   UNL     1     -49.006  34.998  28.107  1.00  0.00     0.054 H 
BRANCH  15  18
ATOM     18  N   UNL     1     -47.525  36.317  27.493  1.00  0.00    -0.347 N 
ATOM     19  O   UNL     1     -48.902  38.052  28.094  1.00  0.00    -0.268 OA
ATOM     20  C   UNL     1     -47.780  37.606  27.886  1.00  0.00     0.270 C 
ATOM     21  H   UNL     1     -46.561  36.087  27.269  1.00  0.00     0.164 HD
BRANCH  20  22
ATOM     22  C   UNL     1     -46.522  38.427  28.027  1.00  0.00     0.136 A 
ATOM     23  C   UNL     1     -45.791  38.213  29.124  1.00  0.00     0.035 A 
ATOM     24  N   UNL     1     -46.208  39.333  27.039  1.00  0.00    -0.225 NA
ATOM     25  C   UNL     1     -44.559  38.990  29.301  1.00  0.00     0.258 A 
ATOM     26  H   UNL     1     -46.050  37.498  29.895  1.00  0.00     0.071 H 
ATOM     27  C   UNL     1     -45.118  40.018  27.201  1.00  0.00     0.140 A 
ATOM     28  O   UNL     1     -43.879  38.798  30.308  1.00  0.00    -0.269 OA
ATOM     29  N   UNL     1     -44.265  39.896  28.292  1.00  0.00    -0.268 N 
ATOM     30  C   UNL     1     -44.738  41.010  26.155  1.00  0.00    -0.019 A 
ATOM     31  C   UNL     1     -43.113  40.669  28.390  1.00  0.00     0.014 A 
ATOM     32  C   UNL     1     -43.619  41.732  26.294  1.00  0.00    -0.057 A 
ATOM     33  H   UNL     1     -45.395  41.113  25.301  1.00  0.00     0.066 H 
ATOM     34  C   UNL     1     -42.778  41.558  27.447  1.00  0.00    -0.045 A 
ATOM     35  H   UNL     1     -42.492  40.521  29.270  1.00  0.00     0.082 H 
ATOM     36  H   UNL     1     -43.325  42.459  25.544  1.00  0.00     0.062 H 
ATOM     37  H   UNL     1     -41.876  42.157  27.535  1.00  0.00     0.064 H 
ENDBRANCH  20  22
ENDBRANCH  15  18
ENDBRANCH   1  15
BRANCH   6  38
ATOM     38  C   UNL     1     -48.475  28.955  23.393  1.00  0.00     0.039 C 
ATOM     39  H   UNL     1     -47.740  28.702  22.617  1.00  0.00     0.050 H 
ATOM     40  H   UNL     1     -49.423  29.079  22.854  1.00  0.00     0.050 H 
BRANCH  38  41
ATOM     41  N   UNL     1     -48.595  27.794  24.274  1.00  0.00    -0.292 NA
ATOM     42  C   UNL     1     -49.167  28.099  25.604  1.00  0.00     0.026 C 
ATOM     43  C   UNL     1     -47.349  27.345  24.927  1.00  0.00     0.026 C 
ATOM     44  C   UNL     1     -48.201  27.034  26.189  1.00  0.00     0.079 C 
ATOM     45  H   UNL     1     -50.230  27.858  25.701  1.00  0.00     0.046 H 
ATOM     46  H   UNL     1     -49.001  29.103  26.006  1.00  0.00     0.046 H 
ATOM     47  H   UNL     1     -46.570  28.091  25.115  1.00  0.00     0.046 H 
ATOM     48  H   UNL     1     -46.885  26.472  24.458  1.00  0.00     0.046 H 
ATOM     49  H   UNL     1     -48.625  26.022  26.184  1.00  0.00     0.063 H 
BRANCH  44  50
ATOM     50  O   UNL     1     -47.609  27.327  27.473  1.00  0.00    -0.390 OA
ATOM     51  H   UNL     1     -46.653  27.232  27.332  1.00  0.00     0.211 HD
ENDBRANCH  44  50
ENDBRANCH  38  41
ENDBRANCH   6  38
TORSDOF 6
ENDMDL
MODEL 5
REMARK VINA RESULT:      -9.6      2.803      4.620
REMARK SMILES O=C(NCc1ccc2cc(CN3CC(O)C3)[nH]c2c1)c1cc(=O)n2ccccc2n1
REMARK SMILES IDX 5 1 6 2 7 3 8 4 9 5 10 6 17 7 18 8 19 9 4 15 3 18 1 19 2 20
REMARK SMILES IDX 20 22 21 23 30 24 22 25 29 27 23 28 24 29 28 30 25 31 27 32
REMARK SMILES IDX 26 34 11 38 12 41 13 42 16 43 14 44 15 50
REMARK H PARENT 6 10 7 11 9 12 17 13 19 14 4 16 4 17 3 21 21 26 28 33 25 35
REMARK H PARENT 27 36 26 37 11 39 11 40 13 45 13 46 16 47 16 48 14 49 15 51
REMARK Flexibility Score: inf
ROOT
ATOM      1  C   UNL     1     -45.840  37.396  28.268  1.00  0.00    -0.027 A 
ATOM      2  C   UNL     1     -47.195  37.652  28.023  1.00  0.00    -0.057 A 
ATOM      3  C   UNL     1     -48.000  36.716  27.359  1.00  0.00    -0.052 A 
ATOM      4  C   UNL     1     -47.434  35.504  26.925  1.00  0.00    -0.000 A 
ATOM      5  C   UNL     1     -47.938  34.366  26.240  1.00  0.00    -0.032 A 
ATOM      6  C   UNL     1     -46.908  33.456  26.094  1.00  0.00     0.030 A 
ATOM      7  N   UNL     1     -45.786  34.034  26.642  1.00  0.00    -0.357 N 
ATOM      8  C   UNL     1     -46.082  35.271  27.168  1.00  0.00     0.046 A 
ATOM      9  C   UNL     1     -45.262  36.193  27.828  1.00  0.00    -0.033 A 
ATOM     10  H   UNL     1     -47.642  38.588  28.351  1.00  0.00     0.063 H 
ATOM     11  H   UNL     1     -49.051  36.927  27.182  1.00  0.00     0.063 H 
ATOM     12  H   UNL     1     -48.955  34.225  25.895  1.00  0.00     0.065 H 
ATOM     13  H   UNL     1     -44.871  33.607  26.675  1.00  0.00     0.166 HD
ATOM     14  H   UNL     1     -44.208  35.987  27.994  1.00  0.00     0.065 H 
ENDROOT
BRANCH   1  15
ATOM     15  C   UNL     1     -44.986  38.428  28.957  1.00  0.00     0.043 C 
ATOM     16  H   UNL     1     -45.506  38.853  29.823  1.00  0.00     0.054 H 
ATOM     17  H   UNL     1     -44.060  37.976  29.335  1.00  0.00     0.054 H 
BRANCH  15  18
ATOM     18  N   UNL     1     -44.656  39.500  28.058  1.00  0.00    -0.347 N 
ATOM     19  O   UNL     1     -42.950  40.362  29.328  1.00  0.00    -0.268 OA
ATOM     20  C   UNL     1     -43.681  40.420  28.348  1.00  0.00     0.270 C 
ATOM     21  H   UNL     1     -45.256  39.701  27.263  1.00  0.00     0.164 HD
BRANCH  20  22
ATOM     22  C   UNL     1     -43.611  41.528  27.325  1.00  0.00     0.136 A 
ATOM     23  C   UNL     1     -42.395  41.846  26.875  1.00  0.00     0.035 A 
ATOM     24  N   UNL     1     -44.780  42.137  26.927  1.00  0.00    -0.225 NA
ATOM     25  C   UNL     1     -42.281  42.919  25.880  1.00  0.00     0.258 A 
ATOM     26  H   UNL     1     -41.482  41.360  27.197  1.00  0.00     0.071 H 
ATOM     27  C   UNL     1     -44.674  43.085  26.048  1.00  0.00     0.140 A 
ATOM     28  O   UNL     1     -41.164  43.217  25.458  1.00  0.00    -0.269 OA
ATOM     29  N   UNL     1     -43.473  43.516  25.495  1.00  0.00    -0.268 N 
ATOM     30  C   UNL     1     -45.914  43.772  25.586  1.00  0.00    -0.019 A 
ATOM     31  C   UNL     1     -43.444  44.540  24.555  1.00  0.00     0.014 A 
ATOM     32  C   UNL     1     -45.836  44.753  24.679  1.00  0.00    -0.057 A 
ATOM     33  H   UNL     1     -46.854  43.443  26.010  1.00  0.00     0.066 H 
ATOM     34  C   UNL     1     -44.562  45.153  24.146  1.00  0.00    -0.045 A 
ATOM     35  H   UNL     1     -42.470  44.826  24.165  1.00  0.00     0.082 H 
ATOM     36  H   UNL     1     -46.727  45.265  24.331  1.00  0.00     0.062 H 
ATOM     37  H   UNL     1     -44.528  45.953  23.411  1.00  0.00     0.064 H 
ENDBRANCH  20  22
ENDBRANCH  15  18
ENDBRANCH   1  15
BRANCH   6  38
ATOM     38  C   UNL     1     -46.859  32.116  25.433  1.00  0.00     0.039 C 
ATOM     39  H   UNL     1     -47.588  31.460  25.928  1.00  0.00     0.050 H 
ATOM     40  H   UNL     1     -45.882  31.661  25.641  1.00  0.00     0.050 H 
BRANCH  38  41
ATOM     41  N   UNL     1     -47.107  32.035  23.994  1.00  0.00    -0.292 NA
ATOM     42  C   UNL     1     -48.211  31.124  23.619  1.00  0.00     0.026 C 
ATOM     43  C   UNL     1     -46.168  31.195  23.222  1.00  0.00     0.026 C 
ATOM     44  C   UNL     1     -47.382  30.747  22.361  1.00  0.00     0.079 C 
ATOM     45  H   UNL     1     -49.159  31.629  23.411  1.00  0.00     0.046 H 
ATOM     46  H   UNL     1     -48.408  30.273  24.279  1.00  0.00     0.046 H 
ATOM     47  H   UNL     1     -45.683  30.361  23.737  1.00  0.00     0.046 H 
ATOM     48  H   UNL     1     -45.403  31.759  22.680  1.00  0.00     0.046 H 
ATOM     49  H   UNL     1     -47.574  31.410  21.509  1.00  0.00     0.063 H 
BRANCH  44  50
ATOM     50  O   UNL     1     -47.422  29.365  21.946  1.00  0.00    -0.390 OA
ATOM     51  H   UNL     1     -48.192  28.991  22.404  1.00  0.00     0.211 HD
ENDBRANCH  44  50
ENDBRANCH  38  41
ENDBRANCH   6  38
TORSDOF 6
ENDMDL
MODEL 6
REMARK VINA RESULT:      -9.6      2.370     11.293
REMARK SMILES O=C(NCc1ccc2cc(CN3CC(O)C3)[nH]c2c1)c1cc(=O)n2ccccc2n1
REMARK SMILES IDX 5 1 6 2 7 3 8 4 9 5 10 6 17 7 18 8 19 9 4 15 3 18 1 19 2 20
REMARK SMILES IDX 20 22 21 23 30 24 22 25 29 27 23 28 24 29 28 30 25 31 27 32
REMARK SMILES IDX 26 34 11 38 12 41 13 42 16 43 14 44 15 50
REMARK H PARENT 6 10 7 11 9 12 17 13 19 14 4 16 4 17 3 21 21 26 28 33 25 35
REMARK H PARENT 27 36 26 37 11 39 11 40 13 45 13 46 16 47 16 48 14 49 15 51
REMARK Flexibility Score: inf
ROOT
ATOM      1  C   UNL     1     -47.913  34.424  26.749  1.00  0.00    -0.027 A 
ATOM      2  C   UNL     1     -46.756  33.862  27.303  1.00  0.00    -0.057 A 
ATOM      3  C   UNL     1     -45.725  34.671  27.802  1.00  0.00    -0.052 A 
ATOM      4  C   UNL     1     -45.854  36.070  27.737  1.00  0.00    -0.000 A 
ATOM      5  C   UNL     1     -45.030  37.158  28.131  1.00  0.00    -0.032 A 
ATOM      6  C   UNL     1     -45.690  38.334  27.827  1.00  0.00     0.030 A 
ATOM      7  N   UNL     1     -46.876  37.980  27.225  1.00  0.00    -0.357 N 
ATOM      8  C   UNL     1     -47.006  36.612  27.173  1.00  0.00     0.046 A 
ATOM      9  C   UNL     1     -48.046  35.821  26.668  1.00  0.00    -0.033 A 
ATOM     10  H   UNL     1     -46.644  32.781  27.354  1.00  0.00     0.063 H 
ATOM     11  H   UNL     1     -44.837  34.219  28.234  1.00  0.00     0.063 H 
ATOM     12  H   UNL     1     -44.056  37.087  28.598  1.00  0.00     0.065 H 
ATOM     13  H   UNL     1     -47.570  38.631  26.883  1.00  0.00     0.166 HD
ATOM     14  H   UNL     1     -48.928  36.272  26.225  1.00  0.00     0.065 H 
ENDROOT
BRANCH   1  15
ATOM     15  C   UNL     1     -48.995  33.537  26.191  1.00  0.00     0.043 C 
ATOM     16  H   UNL     1     -49.816  33.422  26.908  1.00  0.00     0.054 H 
ATOM     17  H   UNL     1     -49.427  33.976  25.283  1.00  0.00     0.054 H 
BRANCH  15  18
ATOM     18  N   UNL     1     -48.476  32.231  25.885  1.00  0.00    -0.347 N 
ATOM     19  O   UNL     1     -50.047  31.718  24.292  1.00  0.00    -0.268 OA
ATOM     20  C   UNL     1     -49.085  31.399  24.980  1.00  0.00     0.270 C 
ATOM     21  H   UNL     1     -47.742  31.827  26.459  1.00  0.00     0.164 HD
BRANCH  20  22
ATOM     22  C   UNL     1     -48.445  30.034  24.929  1.00  0.00     0.136 A 
ATOM     23  C   UNL     1     -47.513  29.848  23.991  1.00  0.00     0.035 A 
ATOM     24  N   UNL     1     -48.853  29.077  25.831  1.00  0.00    -0.225 NA
ATOM     25  C   UNL     1     -46.864  28.534  23.907  1.00  0.00     0.258 A 
ATOM     26  H   UNL     1     -47.201  30.609  23.287  1.00  0.00     0.071 H 
ATOM     27  C   UNL     1     -48.277  27.917  25.751  1.00  0.00     0.140 A 
ATOM     28  O   UNL     1     -46.003  28.355  23.047  1.00  0.00    -0.269 OA
ATOM     29  N   UNL     1     -47.292  27.588  24.826  1.00  0.00    -0.268 N 
ATOM     30  C   UNL     1     -48.687  26.850  26.709  1.00  0.00    -0.019 A 
ATOM     31  C   UNL     1     -46.724  26.319  24.807  1.00  0.00     0.014 A 
ATOM     32  C   UNL     1     -48.110  25.643  26.652  1.00  0.00    -0.057 A 
ATOM     33  H   UNL     1     -49.453  27.097  27.434  1.00  0.00     0.066 H 
ATOM     34  C   UNL     1     -47.097  25.366  25.670  1.00  0.00    -0.045 A 
ATOM     35  H   UNL     1     -45.960  26.131  24.057  1.00  0.00     0.082 H 
ATOM     36  H   UNL     1     -48.395  24.854  27.340  1.00  0.00     0.062 H 
ATOM     37  H   UNL     1     -46.646  24.378  25.645  1.00  0.00     0.064 H 
ENDBRANCH  20  22
ENDBRANCH  15  18
ENDBRANCH   1  15
BRANCH   6  38
ATOM     38  C   UNL     1     -45.288  39.764  27.993  1.00  0.00     0.039 C 
ATOM     39  H   UNL     1     -45.170  39.969  29.066  1.00  0.00     0.050 H 
ATOM     40  H   UNL     1     -46.125  40.400  27.674  1.00  0.00     0.050 H 
BRANCH  38  41
ATOM     41  N   UNL     1     -44.075  40.233  27.324  1.00  0.00    -0.292 NA
ATOM     42  C   UNL     1     -43.175  41.028  28.188  1.00  0.00     0.026 C 
ATOM     43  C   UNL     1     -44.235  41.402  26.436  1.00  0.00     0.026 C 
ATOM     44  C   UNL     1     -42.848  41.890  26.939  1.00  0.00     0.079 C 
ATOM     45  H   UNL     1     -42.328  40.465  28.593  1.00  0.00     0.046 H 
ATOM     46  H   UNL     1     -43.633  41.599  29.002  1.00  0.00     0.046 H 
ATOM     47  H   UNL     1     -45.039  42.110  26.660  1.00  0.00     0.046 H 
ATOM     48  H   UNL     1     -44.277  41.156  25.371  1.00  0.00     0.046 H 
ATOM     49  H   UNL     1     -42.012  41.491  26.351  1.00  0.00     0.063 H 
BRANCH  44  50
ATOM     50  O   UNL     1     -42.685  43.309  27.152  1.00  0.00    -0.390 OA
ATOM     51  H   UNL     1     -42.248  43.380  28.017  1.00  0.00     0.211 HD
ENDBRANCH  44  50
ENDBRANCH  38  41
ENDBRANCH   6  38
TORSDOF 6
ENDMDL
MODEL 7
REMARK VINA RESULT:      -9.5      2.021      3.016
REMARK SMILES O=C(NCc1ccc2cc(CN3CC(O)C3)[nH]c2c1)c1cc(=O)n2ccccc2n1
REMARK SMILES IDX 5 1 6 2 7 3 8 4 9 5 10 6 17 7 18 8 19 9 4 15 3 18 1 19 2 20
REMARK SMILES IDX 20 22 21 23 30 24 22 25 29 27 23 28 24 29 28 30 25 31 27 32
REMARK SMILES IDX 26 34 11 38 12 41 13 42 16 43 14 44 15 50
REMARK H PARENT 6 10 7 11 9 12 17 13 19 14 4 16 4 17 3 21 21 26 28 33 25 35
REMARK H PARENT 27 36 26 37 11 39 11 40 13 45 13 46 16 47 16 48 14 49 15 51
REMARK Flexibility Score: inf
ROOT
ATOM      1  C   UNL     1     -46.334  35.940  28.209  1.00  0.00    -0.027 A 
ATOM      2  C   UNL     1     -47.714  36.007  27.979  1.00  0.00    -0.057 A 
ATOM      3  C   UNL     1     -48.336  35.164  27.048  1.00  0.00    -0.052 A 
ATOM      4  C   UNL     1     -47.556  34.242  26.326  1.00  0.00    -0.000 A 
ATOM      5  C   UNL     1     -47.844  33.268  25.332  1.00  0.00    -0.032 A 
ATOM      6  C   UNL     1     -46.664  32.634  24.991  1.00  0.00     0.030 A 
ATOM      7  N   UNL     1     -45.666  33.229  25.729  1.00  0.00    -0.357 N 
ATOM      8  C   UNL     1     -46.184  34.197  26.559  1.00  0.00     0.046 A 
ATOM      9  C   UNL     1     -45.545  35.031  27.484  1.00  0.00    -0.033 A 
ATOM     10  H   UNL     1     -48.326  36.720  28.529  1.00  0.00     0.063 H 
ATOM     11  H   UNL     1     -49.408  35.225  26.886  1.00  0.00     0.063 H 
ATOM     12  H   UNL     1     -48.819  33.049  24.915  1.00  0.00     0.065 H 
ATOM     13  H   UNL     1     -44.687  32.981  25.687  1.00  0.00     0.166 HD
ATOM     14  H   UNL     1     -44.471  34.979  27.637  1.00  0.00     0.065 H 
ENDROOT
BRANCH   1  15
ATOM     15  C   UNL     1     -45.682  36.877  29.193  1.00  0.00     0.043 C 
ATOM     16  H   UNL     1     -46.385  37.165  29.983  1.00  0.00     0.054 H 
ATOM     17  H   UNL     1     -44.833  36.390  29.688  1.00  0.00     0.054 H 
BRANCH  15  18
ATOM     18  N   UNL     1     -45.227  38.072  28.536  1.00  0.00    -0.347 N 
ATOM     19  O   UNL     1     -47.189  39.238  28.777  1.00  0.00    -0.268 OA
ATOM     20  C   UNL     1     -46.049  39.152  28.338  1.00  0.00     0.270 C 
ATOM     21  H   UNL     1     -44.334  38.078  28.052  1.00  0.00     0.164 HD
BRANCH  20  22
ATOM     22  C   UNL     1     -45.396  40.229  27.506  1.00  0.00     0.136 A 
ATOM     23  C   UNL     1     -46.205  40.948  26.724  1.00  0.00     0.035 A 
ATOM     24  N   UNL     1     -44.034  40.401  27.597  1.00  0.00    -0.225 NA
ATOM     25  C   UNL     1     -45.611  42.006  25.898  1.00  0.00     0.258 A 
ATOM     26  H   UNL     1     -47.276  40.802  26.661  1.00  0.00     0.071 H 
ATOM     27  C   UNL     1     -43.514  41.336  26.863  1.00  0.00     0.140 A 
ATOM     28  O   UNL     1     -46.349  42.676  25.176  1.00  0.00    -0.269 OA
ATOM     29  N   UNL     1     -44.237  42.160  26.007  1.00  0.00    -0.268 N 
ATOM     30  C   UNL     1     -42.041  41.560  26.930  1.00  0.00    -0.019 A 
ATOM     31  C   UNL     1     -43.603  43.142  25.255  1.00  0.00     0.014 A 
ATOM     32  C   UNL     1     -41.476  42.518  26.186  1.00  0.00    -0.057 A 
ATOM     33  H   UNL     1     -41.469  40.924  27.595  1.00  0.00     0.066 H 
ATOM     34  C   UNL     1     -42.280  43.336  25.319  1.00  0.00    -0.045 A 
ATOM     35  H   UNL     1     -44.230  43.750  24.606  1.00  0.00     0.082 H 
ATOM     36  H   UNL     1     -40.406  42.696  26.221  1.00  0.00     0.062 H 
ATOM     37  H   UNL     1     -41.796  44.107  24.726  1.00  0.00     0.064 H 
ENDBRANCH  20  22
ENDBRANCH  15  18
ENDBRANCH   1  15
BRANCH   6  38
ATOM     38  C   UNL     1     -46.371  31.561  23.993  1.00  0.00     0.039 C 
ATOM     39  H   UNL     1     -45.702  30.826  24.461  1.00  0.00     0.050 H 
ATOM     40  H   UNL     1     -45.784  31.998  23.175  1.00  0.00     0.050 H 
BRANCH  38  41
ATOM     41  N   UNL     1     -47.491  30.822  23.410  1.00  0.00    -0.292 NA
ATOM     42  C   UNL     1     -48.062  29.787  24.300  1.00  0.00     0.026 C 
ATOM     43  C   UNL     1     -47.136  29.770  22.436  1.00  0.00     0.026 C 
ATOM     44  C   UNL     1     -48.292  28.920  23.033  1.00  0.00     0.079 C 
ATOM     45  H   UNL     1     -48.975  30.095  24.819  1.00  0.00     0.046 H 
ATOM     46  H   UNL     1     -47.390  29.322  25.028  1.00  0.00     0.046 H 
ATOM     47  H   UNL     1     -46.159  29.287  22.536  1.00  0.00     0.046 H 
ATOM     48  H   UNL     1     -47.271  30.062  21.390  1.00  0.00     0.046 H 
ATOM     49  H   UNL     1     -49.260  29.113  22.553  1.00  0.00     0.063 H 
BRANCH  44  50
ATOM     50  O   UNL     1     -48.067  27.501  23.165  1.00  0.00    -0.390 OA
ATOM     51  H   UNL     1     -47.606  27.247  22.349  1.00  0.00     0.211 HD
ENDBRANCH  44  50
ENDBRANCH  38  41
ENDBRANCH   6  38
TORSDOF 6
ENDMDL
