MODEL 1
REMARK VINA RESULT:      -9.8      0.000      0.000
REMARK SMILES CNc1nc2cc(OC[C@H]3O[C@@H](n4cc(-c5ccn(C)n5)c5c(N)ncnc54)[C@@H](F)[C@@H]3O)ccc2o1
REMARK SMILES IDX 9 1 8 4 7 5 3 6 4 7 36 8 5 9 35 10 6 11 34 12 33 14 2 17
REMARK SMILES IDX 1 19 10 23 11 24 31 25 12 27 29 28 30 31 32 33 13 35 14 36
REMARK SMILES IDX 28 37 15 38 22 40 27 41 23 42 26 43 25 44 16 46 17 47 21 48
REMARK SMILES IDX 18 49 19 51 20 53 24 57
REMARK H PARENT 9 2 9 3 6 13 34 15 33 16 2 18 1 20 1 21 1 22 10 26 31 29 12 30
REMARK H PARENT 29 32 32 34 14 39 26 45 17 50 18 52 20 54 20 55 20 56 24 58
REMARK H PARENT 24 59
REMARK Flexibility Score: inf
ROOT
ATOM      1  C   UNL     1     -46.721  35.963  26.475  1.00  0.00     0.117 C 
ATOM      2  H   UNL     1     -46.957  36.756  25.755  1.00  0.00     0.073 H 
ATOM      3  H   UNL     1     -45.803  35.486  26.119  1.00  0.00     0.073 H 
ENDROOT
BRANCH   1   4
ATOM      4  O   UNL     1     -47.845  35.077  26.435  1.00  0.00    -0.491 OA
BRANCH   4   5
ATOM      5  C   UNL     1     -47.722  33.839  25.867  1.00  0.00     0.121 A 
ATOM      6  C   UNL     1     -48.296  29.654  24.439  1.00  0.00     0.295 A 
ATOM      7  N   UNL     1     -49.069  30.425  25.170  1.00  0.00    -0.193 NA
ATOM      8  O   UNL     1     -47.112  30.223  24.056  1.00  0.00    -0.424 OA
ATOM      9  C   UNL     1     -48.360  31.594  25.276  1.00  0.00     0.115 A 
ATOM     10  C   UNL     1     -47.161  31.474  24.596  1.00  0.00     0.157 A 
ATOM     11  C   UNL     1     -48.659  32.800  25.932  1.00  0.00     0.010 A 
ATOM     12  C   UNL     1     -46.203  32.471  24.499  1.00  0.00    -0.013 A 
ATOM     13  H   UNL     1     -49.607  32.878  26.445  1.00  0.00     0.069 H 
ATOM     14  C   UNL     1     -46.519  33.666  25.157  1.00  0.00    -0.016 A 
ATOM     15  H   UNL     1     -45.280  32.333  23.952  1.00  0.00     0.066 H 
ATOM     16  H   UNL     1     -45.808  34.490  25.117  1.00  0.00     0.066 H 
BRANCH   6  17
ATOM     17  N   UNL     1     -48.553  28.395  24.045  1.00  0.00    -0.343 N 
ATOM     18  H   UNL     1     -49.439  28.294  23.563  1.00  0.00     0.164 HD
BRANCH  17  19
ATOM     19  C   UNL     1     -48.183  27.290  24.897  1.00  0.00     0.008 C 
ATOM     20  H   UNL     1     -48.393  26.347  24.383  1.00  0.00     0.046 H 
ATOM     21  H   UNL     1     -47.114  27.306  25.133  1.00  0.00     0.046 H 
ATOM     22  H   UNL     1     -48.758  27.303  25.829  1.00  0.00     0.046 H 
ENDBRANCH  17  19
ENDBRANCH   6  17
ENDBRANCH   4   5
ENDBRANCH   1   4
BRANCH   1  23
ATOM     23  C   UNL     1     -46.568  36.585  27.865  1.00  0.00     0.123 C 
ATOM     24  O   UNL     1     -45.249  37.140  28.047  1.00  0.00    -0.345 OA
ATOM     25  C   UNL     1     -47.525  37.744  28.101  1.00  0.00     0.119 C 
ATOM     26  H   UNL     1     -46.703  35.807  28.627  1.00  0.00     0.067 H 
ATOM     27  C   UNL     1     -45.369  38.306  28.903  1.00  0.00     0.169 C 
ATOM     28  C   UNL     1     -46.845  38.456  29.249  1.00  0.00     0.173 C 
ATOM     29  H   UNL     1     -47.596  38.400  27.225  1.00  0.00     0.066 H 
ATOM     30  H   UNL     1     -44.761  38.121  29.795  1.00  0.00     0.088 H 
ATOM     31  F   UNL     1     -47.273  39.739  29.308  1.00  0.00    -0.239 F 
ATOM     32  H   UNL     1     -47.082  37.975  30.205  1.00  0.00     0.074 H 
BRANCH  25  33
ATOM     33  O   UNL     1     -48.834  37.302  28.433  1.00  0.00    -0.387 OA
ATOM     34  H   UNL     1     -48.898  37.307  29.408  1.00  0.00     0.211 HD
ENDBRANCH  25  33
BRANCH  27  35
ATOM     35  N   UNL     1     -44.809  39.459  28.211  1.00  0.00    -0.302 N 
ATOM     36  C   UNL     1     -45.289  40.052  27.074  1.00  0.00     0.019 A 
ATOM     37  C   UNL     1     -43.705  40.147  28.652  1.00  0.00     0.148 A 
ATOM     38  C   UNL     1     -44.501  41.154  26.800  1.00  0.00     0.033 A 
ATOM     39  H   UNL     1     -46.151  39.668  26.546  1.00  0.00     0.083 H 
ATOM     40  C   UNL     1     -43.456  41.197  27.772  1.00  0.00     0.071 A 
ATOM     41  N   UNL     1     -42.995  39.833  29.750  1.00  0.00    -0.218 NA
ATOM     42  C   UNL     1     -42.312  41.966  28.042  1.00  0.00     0.137 A 
ATOM     43  C   UNL     1     -41.955  40.662  29.919  1.00  0.00     0.120 A 
ATOM     44  N   UNL     1     -41.575  41.686  29.136  1.00  0.00    -0.219 NA
ATOM     45  H   UNL     1     -41.336  40.480  30.794  1.00  0.00     0.106 H 
BRANCH  38  46
ATOM     46  C   UNL     1     -44.726  42.087  25.699  1.00  0.00     0.095 A 
ATOM     47  C   UNL     1     -43.968  42.154  24.511  1.00  0.00    -0.016 A 
ATOM     48  N   UNL     1     -45.658  43.046  25.748  1.00  0.00    -0.173 NA
ATOM     49  C   UNL     1     -44.516  43.195  23.798  1.00  0.00     0.025 A 
ATOM     50  H   UNL     1     -43.131  41.536  24.215  1.00  0.00     0.066 H 
ATOM     51  N   UNL     1     -45.520  43.690  24.576  1.00  0.00    -0.275 N 
ATOM     52  H   UNL     1     -44.271  43.618  22.834  1.00  0.00     0.084 H 
BRANCH  51  53
ATOM     53  C   UNL     1     -46.391  44.799  24.271  1.00  0.00     0.030 C 
ATOM     54  H   UNL     1     -47.306  44.404  23.821  1.00  0.00     0.048 H 
ATOM     55  H   UNL     1     -46.616  45.327  25.201  1.00  0.00     0.048 H 
ATOM     56  H   UNL     1     -45.892  45.472  23.570  1.00  0.00     0.048 H 
ENDBRANCH  51  53
ENDBRANCH  38  46
BRANCH  42  57
ATOM     57  N   UNL     1     -41.836  42.991  27.232  1.00  0.00    -0.383 N 
ATOM     58  H   UNL     1     -40.828  43.055  27.329  1.00  0.00     0.158 HD
ATOM     59  H   UNL     1     -42.170  42.932  26.277  1.00  0.00     0.158 HD
ENDBRANCH  42  57
ENDBRANCH  27  35
ENDBRANCH   1  23
TORSDOF 10
ENDMDL
MODEL 2
REMARK VINA RESULT:      -9.0      1.514      2.123
REMARK SMILES CNc1nc2cc(OC[C@H]3O[C@@H](n4cc(-c5ccn(C)n5)c5c(N)ncnc54)[C@@H](F)[C@@H]3O)ccc2o1
REMARK SMILES IDX 9 1 8 4 7 5 3 6 4 7 36 8 5 9 35 10 6 11 34 12 33 14 2 17
REMARK SMILES IDX 1 19 10 23 11 24 31 25 12 27 29 28 30 31 32 33 13 35 14 36
REMARK SMILES IDX 28 37 15 38 22 40 27 41 23 42 26 43 25 44 16 46 17 47 21 48
REMARK SMILES IDX 18 49 19 51 20 53 24 57
REMARK H PARENT 9 2 9 3 6 13 34 15 33 16 2 18 1 20 1 21 1 22 10 26 31 29 12 30
REMARK H PARENT 29 32 32 34 14 39 26 45 17 50 18 52 20 54 20 55 20 56 24 58
REMARK H PARENT 24 59
REMARK Flexibility Score: inf
ROOT
ATOM      1  C   UNL     1     -46.549  34.260  26.011  1.00  0.00     0.117 C 
ATOM      2  H   UNL     1     -46.168  35.091  25.404  1.00  0.00     0.073 H 
ATOM      3  H   UNL     1     -45.716  33.561  26.134  1.00  0.00     0.073 H 
ENDROOT
BRANCH   1   4
ATOM      4  O   UNL     1     -47.621  33.700  25.244  1.00  0.00    -0.491 OA
BRANCH   4   5
ATOM      5  C   UNL     1     -47.613  32.369  24.926  1.00  0.00     0.121 A 
ATOM      6  C   UNL     1     -48.409  27.996  24.584  1.00  0.00     0.295 A 
ATOM      7  N   UNL     1     -48.983  28.917  25.324  1.00  0.00    -0.193 NA
ATOM      8  O   UNL     1     -47.391  28.447  23.790  1.00  0.00    -0.424 OA
ATOM      9  C   UNL     1     -48.310  30.066  24.996  1.00  0.00     0.115 A 
ATOM     10  C   UNL     1     -47.334  29.782  24.058  1.00  0.00     0.157 A 
ATOM     11  C   UNL     1     -48.463  31.387  25.449  1.00  0.00     0.010 A 
ATOM     12  C   UNL     1     -46.471  30.716  23.507  1.00  0.00    -0.013 A 
ATOM     13  H   UNL     1     -49.241  31.591  26.172  1.00  0.00     0.069 H 
ATOM     14  C   UNL     1     -46.639  32.028  23.970  1.00  0.00    -0.016 A 
ATOM     15  H   UNL     1     -45.724  30.448  22.772  1.00  0.00     0.066 H 
ATOM     16  H   UNL     1     -45.992  32.809  23.574  1.00  0.00     0.066 H 
BRANCH   6  17
ATOM     17  N   UNL     1     -48.720  26.689  24.537  1.00  0.00    -0.343 N 
ATOM     18  H   UNL     1     -49.029  26.378  23.623  1.00  0.00     0.164 HD
BRANCH  17  19
ATOM     19  C   UNL     1     -49.389  26.073  25.659  1.00  0.00     0.008 C 
ATOM     20  H   UNL     1     -50.141  25.367  25.292  1.00  0.00     0.046 H 
ATOM     21  H   UNL     1     -48.689  25.512  26.285  1.00  0.00     0.046 H 
ATOM     22  H   UNL     1     -49.900  26.823  26.272  1.00  0.00     0.046 H 
ENDBRANCH  17  19
ENDBRANCH   6  17
ENDBRANCH   4   5
ENDBRANCH   1   4
BRANCH   1  23
ATOM     23  C   UNL     1     -47.064  34.812  27.342  1.00  0.00     0.123 C 
ATOM     24  O   UNL     1     -46.013  35.474  28.076  1.00  0.00    -0.345 OA
ATOM     25  C   UNL     1     -48.150  35.862  27.164  1.00  0.00     0.119 C 
ATOM     26  H   UNL     1     -47.423  33.981  27.964  1.00  0.00     0.067 H 
ATOM     27  C   UNL     1     -46.607  36.573  28.814  1.00  0.00     0.169 C 
ATOM     28  C   UNL     1     -48.098  36.566  28.502  1.00  0.00     0.173 C 
ATOM     29  H   UNL     1     -47.915  36.559  26.350  1.00  0.00     0.066 H 
ATOM     30  H   UNL     1     -46.416  36.394  29.877  1.00  0.00     0.088 H 
ATOM     31  F   UNL     1     -48.647  37.799  28.391  1.00  0.00    -0.239 F 
ATOM     32  H   UNL     1     -48.663  36.011  29.259  1.00  0.00     0.074 H 
BRANCH  25  33
ATOM     33  O   UNL     1     -49.421  35.283  26.902  1.00  0.00    -0.387 OA
ATOM     34  H   UNL     1     -49.873  35.185  27.762  1.00  0.00     0.211 HD
ENDBRANCH  25  33
BRANCH  27  35
ATOM     35  N   UNL     1     -45.936  37.811  28.442  1.00  0.00    -0.302 N 
ATOM     36  C   UNL     1     -46.241  38.629  27.387  1.00  0.00     0.019 A 
ATOM     37  C   UNL     1     -44.893  38.353  29.152  1.00  0.00     0.148 A 
ATOM     38  C   UNL     1     -45.403  39.728  27.441  1.00  0.00     0.033 A 
ATOM     39  H   UNL     1     -47.027  38.391  26.683  1.00  0.00     0.083 H 
ATOM     40  C   UNL     1     -44.505  39.539  28.535  1.00  0.00     0.071 A 
ATOM     41  N   UNL     1     -44.350  37.806  30.254  1.00  0.00    -0.218 NA
ATOM     42  C   UNL     1     -43.397  40.192  29.101  1.00  0.00     0.137 A 
ATOM     43  C   UNL     1     -43.330  38.540  30.720  1.00  0.00     0.120 A 
ATOM     44  N   UNL     1     -42.827  39.677  30.209  1.00  0.00    -0.219 NA
ATOM     45  H   UNL     1     -42.845  38.168  31.618  1.00  0.00     0.106 H 
BRANCH  38  46
ATOM     46  C   UNL     1     -45.456  40.862  26.522  1.00  0.00     0.095 A 
ATOM     47  C   UNL     1     -46.562  41.718  26.337  1.00  0.00    -0.016 A 
ATOM     48  N   UNL     1     -44.452  41.159  25.689  1.00  0.00    -0.173 NA
ATOM     49  C   UNL     1     -46.167  42.600  25.358  1.00  0.00     0.025 A 
ATOM     50  H   UNL     1     -47.519  41.693  26.839  1.00  0.00     0.066 H 
ATOM     51  N   UNL     1     -44.903  42.227  25.009  1.00  0.00    -0.275 N 
ATOM     52  H   UNL     1     -46.673  43.432  24.888  1.00  0.00     0.084 H 
BRANCH  51  53
ATOM     53  C   UNL     1     -44.058  42.840  24.012  1.00  0.00     0.030 C 
ATOM     54  H   UNL     1     -43.611  43.738  24.446  1.00  0.00     0.048 H 
ATOM     55  H   UNL     1     -43.284  42.123  23.727  1.00  0.00     0.048 H 
ATOM     56  H   UNL     1     -44.660  43.107  23.140  1.00  0.00     0.048 H 
ENDBRANCH  51  53
ENDBRANCH  38  46
BRANCH  42  57
ATOM     57  N   UNL     1     -42.795  41.330  28.578  1.00  0.00    -0.383 N 
ATOM     58  H   UNL     1     -42.144  41.708  29.258  1.00  0.00     0.158 HD
ATOM     59  H   UNL     1     -42.409  41.186  27.651  1.00  0.00     0.158 HD
ENDBRANCH  42  57
ENDBRANCH  27  35
ENDBRANCH   1  23
TORSDOF 10
ENDMDL
MODEL 3
REMARK VINA RESULT:      -8.9      2.255      3.229
REMARK SMILES CNc1nc2cc(OC[C@H]3O[C@@H](n4cc(-c5ccn(C)n5)c5c(N)ncnc54)[C@@H](F)[C@@H]3O)ccc2o1
REMARK SMILES IDX 9 1 8 4 7 5 3 6 4 7 36 8 5 9 35 10 6 11 34 12 33 14 2 17
REMARK SMILES IDX 1 19 10 23 11 24 31 25 12 27 29 28 30 31 32 33 13 35 14 36
REMARK SMILES IDX 28 37 15 38 22 40 27 41 23 42 26 43 25 44 16 46 17 47 21 48
REMARK SMILES IDX 18 49 19 51 20 53 24 57
REMARK H PARENT 9 2 9 3 6 13 34 15 33 16 2 18 1 20 1 21 1 22 10 26 31 29 12 30
REMARK H PARENT 29 32 32 34 14 39 26 45 17 50 18 52 20 54 20 55 20 56 24 58
REMARK H PARENT 24 59
REMARK Flexibility Score: inf
ROOT
ATOM      1  C   UNL     1     -47.463  34.924  27.902  1.00  0.00     0.117 C 
ATOM      2  H   UNL     1     -47.357  33.887  28.243  1.00  0.00     0.073 H 
ATOM      3  H   UNL     1     -48.341  35.330  28.414  1.00  0.00     0.073 H 
ENDROOT
BRANCH   1   4
ATOM      4  O   UNL     1     -47.654  34.832  26.486  1.00  0.00    -0.491 OA
BRANCH   4   5
ATOM      5  C   UNL     1     -47.636  33.611  25.870  1.00  0.00     0.121 A 
ATOM      6  C   UNL     1     -48.543  29.525  24.332  1.00  0.00     0.295 A 
ATOM      7  N   UNL     1     -49.229  30.315  25.126  1.00  0.00    -0.193 NA
ATOM      8  O   UNL     1     -47.345  30.033  23.909  1.00  0.00    -0.424 OA
ATOM      9  C   UNL     1     -48.443  31.433  25.237  1.00  0.00     0.115 A 
ATOM     10  C   UNL     1     -47.288  31.264  24.493  1.00  0.00     0.157 A 
ATOM     11  C   UNL     1     -48.633  32.630  25.947  1.00  0.00     0.010 A 
ATOM     12  C   UNL     1     -46.274  32.203  24.383  1.00  0.00    -0.013 A 
ATOM     13  H   UNL     1     -49.549  32.748  26.509  1.00  0.00     0.069 H 
ATOM     14  C   UNL     1     -46.483  33.391  25.096  1.00  0.00    -0.016 A 
ATOM     15  H   UNL     1     -45.390  32.028  23.786  1.00  0.00     0.066 H 
ATOM     16  H   UNL     1     -45.723  34.170  25.048  1.00  0.00     0.066 H 
BRANCH   6  17
ATOM     17  N   UNL     1     -48.898  28.300  23.909  1.00  0.00    -0.343 N 
ATOM     18  H   UNL     1     -48.501  27.549  24.463  1.00  0.00     0.164 HD
BRANCH  17  19
ATOM     19  C   UNL     1     -49.005  28.035  22.494  1.00  0.00     0.008 C 
ATOM     20  H   UNL     1     -48.080  27.566  22.140  1.00  0.00     0.046 H 
ATOM     21  H   UNL     1     -49.827  27.347  22.275  1.00  0.00     0.046 H 
ATOM     22  H   UNL     1     -49.150  28.962  21.930  1.00  0.00     0.046 H 
ENDBRANCH  17  19
ENDBRANCH   6  17
ENDBRANCH   4   5
ENDBRANCH   1   4
BRANCH   1  23
ATOM     23  C   UNL     1     -46.178  35.689  28.228  1.00  0.00     0.123 C 
ATOM     24  O   UNL     1     -45.845  36.622  27.181  1.00  0.00    -0.345 OA
ATOM     25  C   UNL     1     -46.298  36.531  29.490  1.00  0.00     0.119 C 
ATOM     26  H   UNL     1     -45.345  34.979  28.311  1.00  0.00     0.067 H 
ATOM     27  C   UNL     1     -45.212  37.775  27.793  1.00  0.00     0.169 C 
ATOM     28  C   UNL     1     -45.166  37.515  29.293  1.00  0.00     0.173 C 
ATOM     29  H   UNL     1     -47.261  37.053  29.543  1.00  0.00     0.066 H 
ATOM     30  H   UNL     1     -44.206  37.861  27.368  1.00  0.00     0.088 H 
ATOM     31  F   UNL     1     -45.380  38.615  30.054  1.00  0.00    -0.239 F 
ATOM     32  H   UNL     1     -44.208  37.076  29.595  1.00  0.00     0.074 H 
BRANCH  25  33
ATOM     33  O   UNL     1     -46.147  35.756  30.671  1.00  0.00    -0.387 OA
ATOM     34  H   UNL     1     -46.005  34.831  30.390  1.00  0.00     0.211 HD
ENDBRANCH  25  33
BRANCH  27  35
ATOM     35  N   UNL     1     -45.956  38.973  27.429  1.00  0.00    -0.302 N 
ATOM     36  C   UNL     1     -47.309  39.163  27.520  1.00  0.00     0.019 A 
ATOM     37  C   UNL     1     -45.365  40.122  26.962  1.00  0.00     0.148 A 
ATOM     38  C   UNL     1     -47.585  40.463  27.137  1.00  0.00     0.033 A 
ATOM     39  H   UNL     1     -47.977  38.382  27.856  1.00  0.00     0.083 H 
ATOM     40  C   UNL     1     -46.358  41.069  26.731  1.00  0.00     0.071 A 
ATOM     41  N   UNL     1     -44.044  40.277  26.762  1.00  0.00    -0.218 NA
ATOM     42  C   UNL     1     -45.927  42.290  26.184  1.00  0.00     0.137 A 
ATOM     43  C   UNL     1     -43.757  41.493  26.275  1.00  0.00     0.120 A 
ATOM     44  N   UNL     1     -44.610  42.486  25.972  1.00  0.00    -0.219 NA
ATOM     45  H   UNL     1     -42.706  41.700  26.097  1.00  0.00     0.106 H 
BRANCH  38  46
ATOM     46  C   UNL     1     -48.912  41.072  27.156  1.00  0.00     0.095 A 
ATOM     47  C   UNL     1     -49.890  40.881  28.155  1.00  0.00    -0.016 A 
ATOM     48  N   UNL     1     -49.368  41.835  26.155  1.00  0.00    -0.173 NA
ATOM     49  C   UNL     1     -50.976  41.613  27.733  1.00  0.00     0.025 A 
ATOM     50  H   UNL     1     -49.819  40.287  29.056  1.00  0.00     0.066 H 
ATOM     51  N   UNL     1     -50.613  42.163  26.540  1.00  0.00    -0.275 N 
ATOM     52  H   UNL     1     -51.953  41.771  28.168  1.00  0.00     0.084 H 
BRANCH  51  53
ATOM     53  C   UNL     1     -51.415  43.012  25.693  1.00  0.00     0.030 C 
ATOM     54  H   UNL     1     -51.246  42.719  24.653  1.00  0.00     0.048 H 
ATOM     55  H   UNL     1     -52.465  42.876  25.964  1.00  0.00     0.048 H 
ATOM     56  H   UNL     1     -51.122  44.054  25.839  1.00  0.00     0.048 H 
ENDBRANCH  51  53
ENDBRANCH  38  46
BRANCH  42  57
ATOM     57  N   UNL     1     -46.769  43.323  25.790  1.00  0.00    -0.383 N 
ATOM     58  H   UNL     1     -46.448  44.193  26.200  1.00  0.00     0.158 HD
ATOM     59  H   UNL     1     -46.920  43.354  24.787  1.00  0.00     0.158 HD
ENDBRANCH  42  57
ENDBRANCH  27  35
ENDBRANCH   1  23
TORSDOF 10
ENDMDL
MODEL 4
REMARK VINA RESULT:      -8.1      4.042     11.806
REMARK SMILES CNc1nc2cc(OC[C@H]3O[C@@H](n4cc(-c5ccn(C)n5)c5c(N)ncnc54)[C@@H](F)[C@@H]3O)ccc2o1
REMARK SMILES IDX 9 1 8 4 7 5 3 6 4 7 36 8 5 9 35 10 6 11 34 12 33 14 2 17
REMARK SMILES IDX 1 19 10 23 11 24 31 25 12 27 29 28 30 31 32 33 13 35 14 36
REMARK SMILES IDX 28 37 15 38 22 40 27 41 23 42 26 43 25 44 16 46 17 47 21 48
REMARK SMILES IDX 18 49 19 51 20 53 24 57
REMARK H PARENT 9 2 9 3 6 13 34 15 33 16 2 18 1 20 1 21 1 22 10 26 31 29 12 30
REMARK H PARENT 29 32 32 34 14 39 26 45 17 50 18 52 20 54 20 55 20 56 24 58
REMARK H PARENT 24 59
REMARK Flexibility Score: inf
ROOT
ATOM      1  C   UNL     1     -46.381  33.762  26.643  1.00  0.00     0.117 C 
ATOM      2  H   UNL     1     -46.021  32.792  27.008  1.00  0.00     0.073 H 
ATOM      3  H   UNL     1     -45.501  34.303  26.283  1.00  0.00     0.073 H 
ENDROOT
BRANCH   1   4
ATOM      4  O   UNL     1     -46.976  34.391  27.784  1.00  0.00    -0.491 OA
BRANCH   4   5
ATOM      5  C   UNL     1     -47.010  35.756  27.874  1.00  0.00     0.121 A 
ATOM      6  C   UNL     1     -48.185  40.047  28.170  1.00  0.00     0.295 A 
ATOM      7  N   UNL     1     -48.919  38.960  28.084  1.00  0.00    -0.193 NA
ATOM      8  O   UNL     1     -46.834  39.832  28.159  1.00  0.00    -0.424 OA
ATOM      9  C   UNL     1     -47.997  37.947  28.021  1.00  0.00     0.115 A 
ATOM     10  C   UNL     1     -46.719  38.477  28.066  1.00  0.00     0.157 A 
ATOM     11  C   UNL     1     -48.159  36.555  27.922  1.00  0.00     0.010 A 
ATOM     12  C   UNL     1     -45.552  37.731  28.024  1.00  0.00    -0.013 A 
ATOM     13  H   UNL     1     -49.165  36.160  27.903  1.00  0.00     0.069 H 
ATOM     14  C   UNL     1     -45.734  36.345  27.928  1.00  0.00    -0.016 A 
ATOM     15  H   UNL     1     -44.573  38.189  28.066  1.00  0.00     0.066 H 
ATOM     16  H   UNL     1     -44.855  35.703  27.893  1.00  0.00     0.066 H 
BRANCH   6  17
ATOM     17  N   UNL     1     -48.626  41.312  28.264  1.00  0.00    -0.343 N 
ATOM     18  H   UNL     1     -48.104  41.877  28.925  1.00  0.00     0.164 HD
BRANCH  17  19
ATOM     19  C   UNL     1     -50.044  41.581  28.205  1.00  0.00     0.008 C 
ATOM     20  H   UNL     1     -50.590  40.637  28.110  1.00  0.00     0.046 H 
ATOM     21  H   UNL     1     -50.397  42.075  29.116  1.00  0.00     0.046 H 
ATOM     22  H   UNL     1     -50.291  42.204  27.339  1.00  0.00     0.046 H 
ENDBRANCH  17  19
ENDBRANCH   6  17
ENDBRANCH   4   5
ENDBRANCH   1   4
BRANCH   1  23
ATOM     23  C   UNL     1     -47.424  33.525  25.548  1.00  0.00     0.123 C 
ATOM     24  O   UNL     1     -46.897  32.693  24.495  1.00  0.00    -0.345 OA
ATOM     25  C   UNL     1     -48.656  32.792  26.057  1.00  0.00     0.119 C 
ATOM     26  H   UNL     1     -47.701  34.487  25.097  1.00  0.00     0.067 H 
ATOM     27  C   UNL     1     -47.985  31.886  23.975  1.00  0.00     0.169 C 
ATOM     28  C   UNL     1     -49.233  32.258  24.765  1.00  0.00     0.173 C 
ATOM     29  H   UNL     1     -48.393  31.969  26.734  1.00  0.00     0.066 H 
ATOM     30  H   UNL     1     -48.092  32.127  22.913  1.00  0.00     0.088 H 
ATOM     31  F   UNL     1     -50.054  31.213  25.029  1.00  0.00    -0.239 F 
ATOM     32  H   UNL     1     -49.819  33.027  24.249  1.00  0.00     0.074 H 
BRANCH  25  33
ATOM     33  O   UNL     1     -49.555  33.657  26.737  1.00  0.00    -0.387 OA
ATOM     34  H   UNL     1     -49.136  33.894  27.588  1.00  0.00     0.211 HD
ENDBRANCH  25  33
BRANCH  27  35
ATOM     35  N   UNL     1     -47.623  30.479  24.080  1.00  0.00    -0.302 N 
ATOM     36  C   UNL     1     -48.226  29.527  24.858  1.00  0.00     0.019 A 
ATOM     37  C   UNL     1     -46.611  29.899  23.354  1.00  0.00     0.148 A 
ATOM     38  C   UNL     1     -47.614  28.314  24.603  1.00  0.00     0.033 A 
ATOM     39  H   UNL     1     -49.045  29.765  25.524  1.00  0.00     0.083 H 
ATOM     40  C   UNL     1     -46.549  28.547  23.681  1.00  0.00     0.071 A 
ATOM     41  N   UNL     1     -45.821  30.552  22.483  1.00  0.00    -0.218 NA
ATOM     42  C   UNL     1     -45.517  27.814  23.072  1.00  0.00     0.137 A 
ATOM     43  C   UNL     1     -44.904  29.738  21.941  1.00  0.00     0.120 A 
ATOM     44  N   UNL     1     -44.705  28.432  22.190  1.00  0.00    -0.219 NA
ATOM     45  H   UNL     1     -44.233  30.190  21.217  1.00  0.00     0.106 H 
BRANCH  38  46
ATOM     46  C   UNL     1     -48.013  27.039  25.193  1.00  0.00     0.095 A 
ATOM     47  C   UNL     1     -49.323  26.515  25.206  1.00  0.00    -0.016 A 
ATOM     48  N   UNL     1     -47.159  26.259  25.865  1.00  0.00    -0.173 NA
ATOM     49  C   UNL     1     -49.223  25.329  25.896  1.00  0.00     0.025 A 
ATOM     50  H   UNL     1     -50.220  26.943  24.780  1.00  0.00     0.066 H 
ATOM     51  N   UNL     1     -47.915  25.221  26.264  1.00  0.00    -0.275 N 
ATOM     52  H   UNL     1     -49.959  24.581  26.157  1.00  0.00     0.084 H 
BRANCH  51  53
ATOM     53  C   UNL     1     -47.307  24.152  27.018  1.00  0.00     0.030 C 
ATOM     54  H   UNL     1     -47.951  23.271  26.946  1.00  0.00     0.048 H 
ATOM     55  H   UNL     1     -46.323  23.945  26.591  1.00  0.00     0.048 H 
ATOM     56  H   UNL     1     -47.206  24.455  28.063  1.00  0.00     0.048 H 
ENDBRANCH  51  53
ENDBRANCH  38  46
BRANCH  42  57
ATOM     57  N   UNL     1     -45.224  26.482  23.341  1.00  0.00    -0.383 N 
ATOM     58  H   UNL     1     -45.959  25.894  22.964  1.00  0.00     0.158 HD
ATOM     59  H   UNL     1     -44.283  26.218  23.068  1.00  0.00     0.158 HD
ENDBRANCH  42  57
ENDBRANCH  27  35
ENDBRANCH   1  23
TORSDOF 10
ENDMDL
MODEL 5
REMARK VINA RESULT:      -8.1      2.909     11.156
REMARK SMILES CNc1nc2cc(OC[C@H]3O[C@@H](n4cc(-c5ccn(C)n5)c5c(N)ncnc54)[C@@H](F)[C@@H]3O)ccc2o1
REMARK SMILES IDX 9 1 8 4 7 5 3 6 4 7 36 8 5 9 35 10 6 11 34 12 33 14 2 17
REMARK SMILES IDX 1 19 10 23 11 24 31 25 12 27 29 28 30 31 32 33 13 35 14 36
REMARK SMILES IDX 28 37 15 38 22 40 27 41 23 42 26 43 25 44 16 46 17 47 21 48
REMARK SMILES IDX 18 49 19 51 20 53 24 57
REMARK H PARENT 9 2 9 3 6 13 34 15 33 16 2 18 1 20 1 21 1 22 10 26 31 29 12 30
REMARK H PARENT 29 32 32 34 14 39 26 45 17 50 18 52 20 54 20 55 20 56 24 58
REMARK H PARENT 24 59
REMARK Flexibility Score: inf
ROOT
ATOM      1  C   UNL     1     -49.204  34.816  26.625  1.00  0.00     0.117 C 
ATOM      2  H   UNL     1     -48.971  35.414  25.736  1.00  0.00     0.073 H 
ATOM      3  H   UNL     1     -50.208  34.409  26.469  1.00  0.00     0.073 H 
ENDROOT
BRANCH   1   4
ATOM      4  O   UNL     1     -49.157  35.740  27.719  1.00  0.00    -0.491 OA
BRANCH   4   5
ATOM      5  C   UNL     1     -48.047  36.516  27.912  1.00  0.00     0.121 A 
ATOM      6  C   UNL     1     -44.875  39.646  27.767  1.00  0.00     0.295 A 
ATOM      7  N   UNL     1     -45.973  39.504  27.060  1.00  0.00    -0.193 NA
ATOM      8  O   UNL     1     -44.659  38.668  28.699  1.00  0.00    -0.424 OA
ATOM      9  C   UNL     1     -46.538  38.359  27.559  1.00  0.00     0.115 A 
ATOM     10  C   UNL     1     -45.736  37.844  28.562  1.00  0.00     0.157 A 
ATOM     11  C   UNL     1     -47.724  37.688  27.216  1.00  0.00     0.010 A 
ATOM     12  C   UNL     1     -46.011  36.691  29.281  1.00  0.00    -0.013 A 
ATOM     13  H   UNL     1     -48.343  38.115  26.440  1.00  0.00     0.069 H 
ATOM     14  C   UNL     1     -47.199  36.038  28.927  1.00  0.00    -0.016 A 
ATOM     15  H   UNL     1     -45.356  36.328  30.061  1.00  0.00     0.066 H 
ATOM     16  H   UNL     1     -47.473  35.127  29.457  1.00  0.00     0.066 H 
BRANCH   6  17
ATOM     17  N   UNL     1     -43.970  40.634  27.661  1.00  0.00    -0.343 N 
ATOM     18  H   UNL     1     -43.583  40.732  26.729  1.00  0.00     0.164 HD
BRANCH  17  19
ATOM     19  C   UNL     1     -43.044  40.874  28.742  1.00  0.00     0.008 C 
ATOM     20  H   UNL     1     -42.279  40.090  28.748  1.00  0.00     0.046 H 
ATOM     21  H   UNL     1     -42.530  41.833  28.626  1.00  0.00     0.046 H 
ATOM     22  H   UNL     1     -43.555  40.854  29.710  1.00  0.00     0.046 H 
ENDBRANCH  17  19
ENDBRANCH   6  17
ENDBRANCH   4   5
ENDBRANCH   1   4
BRANCH   1  23
ATOM     23  C   UNL     1     -48.139  33.729  26.787  1.00  0.00     0.123 C 
ATOM     24  O   UNL     1     -48.736  32.416  26.832  1.00  0.00    -0.345 OA
ATOM     25  C   UNL     1     -47.164  33.683  25.621  1.00  0.00     0.119 C 
ATOM     26  H   UNL     1     -47.607  33.879  27.735  1.00  0.00     0.067 H 
ATOM     27  C   UNL     1     -47.814  31.484  26.211  1.00  0.00     0.169 C 
ATOM     28  C   UNL     1     -46.598  32.288  25.767  1.00  0.00     0.173 C 
ATOM     29  H   UNL     1     -47.673  33.796  24.656  1.00  0.00     0.066 H 
ATOM     30  H   UNL     1     -47.549  30.734  26.963  1.00  0.00     0.088 H 
ATOM     31  F   UNL     1     -46.067  31.884  24.588  1.00  0.00    -0.239 F 
ATOM     32  H   UNL     1     -45.804  32.263  26.522  1.00  0.00     0.074 H 
BRANCH  25  33
ATOM     33  O   UNL     1     -46.163  34.688  25.716  1.00  0.00    -0.387 OA
ATOM     34  H   UNL     1     -46.531  35.497  25.311  1.00  0.00     0.211 HD
ENDBRANCH  25  33
BRANCH  27  35
ATOM     35  N   UNL     1     -48.495  30.801  25.119  1.00  0.00    -0.302 N 
ATOM     36  C   UNL     1     -48.884  31.342  23.923  1.00  0.00     0.019 A 
ATOM     37  C   UNL     1     -48.814  29.465  25.140  1.00  0.00     0.148 A 
ATOM     38  C   UNL     1     -49.431  30.332  23.154  1.00  0.00     0.033 A 
ATOM     39  H   UNL     1     -48.741  32.389  23.693  1.00  0.00     0.083 H 
ATOM     40  C   UNL     1     -49.437  29.139  23.939  1.00  0.00     0.071 A 
ATOM     41  N   UNL     1     -48.562  28.633  26.167  1.00  0.00    -0.218 NA
ATOM     42  C   UNL     1     -49.891  27.815  23.822  1.00  0.00     0.137 A 
ATOM     43  C   UNL     1     -49.008  27.394  25.919  1.00  0.00     0.120 A 
ATOM     44  N   UNL     1     -49.655  26.949  24.828  1.00  0.00    -0.219 NA
ATOM     45  H   UNL     1     -48.832  26.658  26.699  1.00  0.00     0.106 H 
BRANCH  38  46
ATOM     46  C   UNL     1     -49.910  30.494  21.783  1.00  0.00     0.095 A 
ATOM     47  C   UNL     1     -49.134  30.325  20.617  1.00  0.00    -0.016 A 
ATOM     48  N   UNL     1     -51.151  30.905  21.499  1.00  0.00    -0.173 NA
ATOM     49  C   UNL     1     -49.987  30.616  19.578  1.00  0.00     0.025 A 
ATOM     50  H   UNL     1     -48.094  30.037  20.540  1.00  0.00     0.066 H 
ATOM     51  N   UNL     1     -51.176  30.953  20.156  1.00  0.00    -0.275 N 
ATOM     52  H   UNL     1     -49.845  30.623  18.506  1.00  0.00     0.084 H 
BRANCH  51  53
ATOM     53  C   UNL     1     -52.389  31.349  19.484  1.00  0.00     0.030 C 
ATOM     54  H   UNL     1     -52.265  32.375  19.127  1.00  0.00     0.048 H 
ATOM     55  H   UNL     1     -52.558  30.668  18.646  1.00  0.00     0.048 H 
ATOM     56  H   UNL     1     -53.226  31.297  20.184  1.00  0.00     0.048 H 
ENDBRANCH  51  53
ENDBRANCH  38  46
BRANCH  42  57
ATOM     57  N   UNL     1     -50.622  27.318  22.749  1.00  0.00    -0.383 N 
ATOM     58  H   UNL     1     -51.440  27.900  22.602  1.00  0.00     0.158 HD
ATOM     59  H   UNL     1     -50.057  27.159  21.922  1.00  0.00     0.158 HD
ENDBRANCH  42  57
ENDBRANCH  27  35
ENDBRANCH   1  23
TORSDOF 10
ENDMDL
MODEL 6
REMARK VINA RESULT:      -8.0      2.561      4.465
REMARK SMILES CNc1nc2cc(OC[C@H]3O[C@@H](n4cc(-c5ccn(C)n5)c5c(N)ncnc54)[C@@H](F)[C@@H]3O)ccc2o1
REMARK SMILES IDX 9 1 8 4 7 5 3 6 4 7 36 8 5 9 35 10 6 11 34 12 33 14 2 17
REMARK SMILES IDX 1 19 10 23 11 24 31 25 12 27 29 28 30 31 32 33 13 35 14 36
REMARK SMILES IDX 28 37 15 38 22 40 27 41 23 42 26 43 25 44 16 46 17 47 21 48
REMARK SMILES IDX 18 49 19 51 20 53 24 57
REMARK H PARENT 9 2 9 3 6 13 34 15 33 16 2 18 1 20 1 21 1 22 10 26 31 29 12 30
REMARK H PARENT 29 32 32 34 14 39 26 45 17 50 18 52 20 54 20 55 20 56 24 58
REMARK H PARENT 24 59
REMARK Flexibility Score: inf
ROOT
ATOM      1  C   UNL     1     -46.101  38.126  28.983  1.00  0.00     0.117 C 
ATOM      2  H   UNL     1     -46.116  38.582  29.981  1.00  0.00     0.073 H 
ATOM      3  H   UNL     1     -47.068  38.357  28.524  1.00  0.00     0.073 H 
ENDROOT
BRANCH   1   4
ATOM      4  O   UNL     1     -45.931  36.723  29.218  1.00  0.00    -0.491 OA
BRANCH   4   5
ATOM      5  C   UNL     1     -46.483  35.814  28.358  1.00  0.00     0.121 A 
ATOM      6  C   UNL     1     -47.369  32.309  25.748  1.00  0.00     0.295 A 
ATOM      7  N   UNL     1     -46.315  32.588  26.481  1.00  0.00    -0.193 NA
ATOM      8  O   UNL     1     -48.360  33.252  25.781  1.00  0.00    -0.424 OA
ATOM      9  C   UNL     1     -46.624  33.796  27.052  1.00  0.00     0.115 A 
ATOM     10  C   UNL     1     -47.875  34.205  26.626  1.00  0.00     0.157 A 
ATOM     11  C   UNL     1     -45.901  34.611  27.939  1.00  0.00     0.010 A 
ATOM     12  C   UNL     1     -48.496  35.383  27.012  1.00  0.00    -0.013 A 
ATOM     13  H   UNL     1     -44.932  34.266  28.271  1.00  0.00     0.069 H 
ATOM     14  C   UNL     1     -47.760  36.181  27.898  1.00  0.00    -0.016 A 
ATOM     15  H   UNL     1     -49.479  35.661  26.655  1.00  0.00     0.066 H 
ATOM     16  H   UNL     1     -48.195  37.119  28.241  1.00  0.00     0.066 H 
BRANCH   6  17
ATOM     17  N   UNL     1     -47.558  31.215  24.990  1.00  0.00    -0.343 N 
ATOM     18  H   UNL     1     -47.771  30.382  25.526  1.00  0.00     0.164 HD
BRANCH  17  19
ATOM     19  C   UNL     1     -46.736  31.005  23.822  1.00  0.00     0.008 C 
ATOM     20  H   UNL     1     -46.220  31.937  23.567  1.00  0.00     0.046 H 
ATOM     21  H   UNL     1     -45.971  30.244  24.001  1.00  0.00     0.046 H 
ATOM     22  H   UNL     1     -47.344  30.709  22.961  1.00  0.00     0.046 H 
ENDBRANCH  17  19
ENDBRANCH   6  17
ENDBRANCH   4   5
ENDBRANCH   1   4
BRANCH   1  23
ATOM     23  C   UNL     1     -44.918  38.692  28.195  1.00  0.00     0.123 C 
ATOM     24  O   UNL     1     -45.321  39.110  26.874  1.00  0.00    -0.345 OA
ATOM     25  C   UNL     1     -44.321  39.934  28.841  1.00  0.00     0.119 C 
ATOM     26  H   UNL     1     -44.156  37.912  28.073  1.00  0.00     0.067 H 
ATOM     27  C   UNL     1     -44.517  40.259  26.503  1.00  0.00     0.169 C 
ATOM     28  C   UNL     1     -43.581  40.545  27.671  1.00  0.00     0.173 C 
ATOM     29  H   UNL     1     -45.096  40.617  29.209  1.00  0.00     0.066 H 
ATOM     30  H   UNL     1     -43.963  39.992  25.598  1.00  0.00     0.088 H 
ATOM     31  F   UNL     1     -43.370  41.862  27.902  1.00  0.00    -0.239 F 
ATOM     32  H   UNL     1     -42.606  40.065  27.529  1.00  0.00     0.074 H 
BRANCH  25  33
ATOM     33  O   UNL     1     -43.458  39.615  29.923  1.00  0.00    -0.387 OA
ATOM     34  H   UNL     1     -43.976  39.081  30.555  1.00  0.00     0.211 HD
ENDBRANCH  25  33
BRANCH  27  35
ATOM     35  N   UNL     1     -45.401  41.369  26.175  1.00  0.00    -0.302 N 
ATOM     36  C   UNL     1     -46.694  41.545  26.593  1.00  0.00     0.019 A 
ATOM     37  C   UNL     1     -45.022  42.440  25.403  1.00  0.00     0.148 A 
ATOM     38  C   UNL     1     -47.137  42.762  26.108  1.00  0.00     0.033 A 
ATOM     39  H   UNL     1     -47.204  40.815  27.206  1.00  0.00     0.083 H 
ATOM     40  C   UNL     1     -46.096  43.319  25.307  1.00  0.00     0.071 A 
ATOM     41  N   UNL     1     -43.809  42.587  24.840  1.00  0.00    -0.218 NA
ATOM     42  C   UNL     1     -45.897  44.445  24.490  1.00  0.00     0.137 A 
ATOM     43  C   UNL     1     -43.733  43.715  24.120  1.00  0.00     0.120 A 
ATOM     44  N   UNL     1     -44.694  44.631  23.909  1.00  0.00    -0.219 NA
ATOM     45  H   UNL     1     -42.778  43.911  23.640  1.00  0.00     0.106 H 
BRANCH  38  46
ATOM     46  C   UNL     1     -48.449  43.341  26.387  1.00  0.00     0.095 A 
ATOM     47  C   UNL     1     -48.708  44.385  27.301  1.00  0.00    -0.016 A 
ATOM     48  N   UNL     1     -49.575  42.869  25.839  1.00  0.00    -0.173 NA
ATOM     49  C   UNL     1     -50.072  44.564  27.256  1.00  0.00     0.025 A 
ATOM     50  H   UNL     1     -48.003  44.928  27.915  1.00  0.00     0.066 H 
ATOM     51  N   UNL     1     -50.540  43.641  26.369  1.00  0.00    -0.275 N 
ATOM     52  H   UNL     1     -50.728  45.248  27.777  1.00  0.00     0.084 H 
BRANCH  51  53
ATOM     53  C   UNL     1     -51.913  43.423  25.983  1.00  0.00     0.030 C 
ATOM     54  H   UNL     1     -51.932  43.137  24.928  1.00  0.00     0.048 H 
ATOM     55  H   UNL     1     -52.324  42.624  26.606  1.00  0.00     0.048 H 
ATOM     56  H   UNL     1     -52.482  44.343  26.129  1.00  0.00     0.048 H 
ENDBRANCH  51  53
ENDBRANCH  38  46
BRANCH  42  57
ATOM     57  N   UNL     1     -46.873  45.387  24.184  1.00  0.00    -0.383 N 
ATOM     58  H   UNL     1     -46.926  45.500  23.177  1.00  0.00     0.158 HD
ATOM     59  H   UNL     1     -47.760  45.204  24.641  1.00  0.00     0.158 HD
ENDBRANCH  42  57
ENDBRANCH  27  35
ENDBRANCH   1  23
TORSDOF 10
ENDMDL
MODEL 7
REMARK VINA RESULT:      -7.9      3.160      6.149
REMARK SMILES CNc1nc2cc(OC[C@H]3O[C@@H](n4cc(-c5ccn(C)n5)c5c(N)ncnc54)[C@@H](F)[C@@H]3O)ccc2o1
REMARK SMILES IDX 9 1 8 4 7 5 3 6 4 7 36 8 5 9 35 10 6 11 34 12 33 14 2 17
REMARK SMILES IDX 1 19 10 23 11 24 31 25 12 27 29 28 30 31 32 33 13 35 14 36
REMARK SMILES IDX 28 37 15 38 22 40 27 41 23 42 26 43 25 44 16 46 17 47 21 48
REMARK SMILES IDX 18 49 19 51 20 53 24 57
REMARK H PARENT 9 2 9 3 6 13 34 15 33 16 2 18 1 20 1 21 1 22 10 26 31 29 12 30
REMARK H PARENT 29 32 32 34 14 39 26 45 17 50 18 52 20 54 20 55 20 56 24 58
REMARK H PARENT 24 59
REMARK Flexibility Score: inf
ROOT
ATOM      1  C   UNL     1     -43.808  40.087  28.537  1.00  0.00     0.117 C 
ATOM      2  H   UNL     1     -43.334  39.100  28.463  1.00  0.00     0.073 H 
ATOM      3  H   UNL     1     -43.644  40.432  29.563  1.00  0.00     0.073 H 
ENDROOT
BRANCH   1   4
ATOM      4  O   UNL     1     -45.194  39.856  28.256  1.00  0.00    -0.491 OA
BRANCH   4   5
ATOM      5  C   UNL     1     -45.672  38.577  28.174  1.00  0.00     0.121 A 
ATOM      6  C   UNL     1     -47.388  34.673  26.873  1.00  0.00     0.295 A 
ATOM      7  N   UNL     1     -47.181  35.784  26.204  1.00  0.00    -0.193 NA
ATOM      8  O   UNL     1     -47.027  34.718  28.192  1.00  0.00    -0.424 OA
ATOM      9  C   UNL     1     -46.634  36.630  27.135  1.00  0.00     0.115 A 
ATOM     10  C   UNL     1     -46.538  35.981  28.354  1.00  0.00     0.157 A 
ATOM     11  C   UNL     1     -46.194  37.960  27.030  1.00  0.00     0.010 A 
ATOM     12  C   UNL     1     -46.028  36.545  29.512  1.00  0.00    -0.013 A 
ATOM     13  H   UNL     1     -46.263  38.444  26.066  1.00  0.00     0.069 H 
ATOM     14  C   UNL     1     -45.593  37.871  29.387  1.00  0.00    -0.016 A 
ATOM     15  H   UNL     1     -45.969  35.997  30.443  1.00  0.00     0.066 H 
ATOM     16  H   UNL     1     -45.180  38.370  30.262  1.00  0.00     0.066 H 
BRANCH   6  17
ATOM     17  N   UNL     1     -47.909  33.529  26.396  1.00  0.00    -0.343 N 
ATOM     18  H   UNL     1     -48.754  33.237  26.875  1.00  0.00     0.164 HD
BRANCH  17  19
ATOM     19  C   UNL     1     -47.029  32.460  25.986  1.00  0.00     0.008 C 
ATOM     20  H   UNL     1     -47.614  31.548  25.830  1.00  0.00     0.046 H 
ATOM     21  H   UNL     1     -46.526  32.694  25.043  1.00  0.00     0.046 H 
ATOM     22  H   UNL     1     -46.277  32.252  26.755  1.00  0.00     0.046 H 
ENDBRANCH  17  19
ENDBRANCH   6  17
ENDBRANCH   4   5
ENDBRANCH   1   4
BRANCH   1  23
ATOM     23  C   UNL     1     -43.189  41.016  27.490  1.00  0.00     0.123 C 
ATOM     24  O   UNL     1     -43.973  41.037  26.280  1.00  0.00    -0.345 OA
ATOM     25  C   UNL     1     -43.129  42.464  27.952  1.00  0.00     0.119 C 
ATOM     26  H   UNL     1     -42.189  40.649  27.226  1.00  0.00     0.067 H 
ATOM     27  C   UNL     1     -43.876  42.366  25.707  1.00  0.00     0.169 C 
ATOM     28  C   UNL     1     -42.984  43.186  26.630  1.00  0.00     0.173 C 
ATOM     29  H   UNL     1     -44.050  42.770  28.462  1.00  0.00     0.066 H 
ATOM     30  H   UNL     1     -43.437  42.262  24.709  1.00  0.00     0.088 H 
ATOM     31  F   UNL     1     -43.369  44.477  26.770  1.00  0.00    -0.239 F 
ATOM     32  H   UNL     1     -41.942  43.179  26.291  1.00  0.00     0.074 H 
BRANCH  25  33
ATOM     33  O   UNL     1     -42.035  42.706  28.826  1.00  0.00    -0.387 OA
ATOM     34  H   UNL     1     -42.215  42.216  29.652  1.00  0.00     0.211 HD
ENDBRANCH  25  33
BRANCH  27  35
ATOM     35  N   UNL     1     -45.217  42.912  25.550  1.00  0.00    -0.302 N 
ATOM     36  C   UNL     1     -46.345  42.537  26.230  1.00  0.00     0.019 A 
ATOM     37  C   UNL     1     -45.524  43.939  24.690  1.00  0.00     0.148 A 
ATOM     38  C   UNL     1     -47.382  43.357  25.824  1.00  0.00     0.033 A 
ATOM     39  H   UNL     1     -46.339  41.735  26.954  1.00  0.00     0.083 H 
ATOM     40  C   UNL     1     -46.881  44.223  24.805  1.00  0.00     0.071 A 
ATOM     41  N   UNL     1     -44.641  44.547  23.878  1.00  0.00    -0.218 NA
ATOM     42  C   UNL     1     -47.377  45.212  23.939  1.00  0.00     0.137 A 
ATOM     43  C   UNL     1     -45.227  45.494  23.132  1.00  0.00     0.120 A 
ATOM     44  N   UNL     1     -46.524  45.848  23.111  1.00  0.00    -0.219 NA
ATOM     45  H   UNL     1     -44.576  46.040  22.455  1.00  0.00     0.106 H 
BRANCH  38  46
ATOM     46  C   UNL     1     -48.739  43.313  26.363  1.00  0.00     0.095 A 
ATOM     47  C   UNL     1     -49.091  43.501  27.716  1.00  0.00    -0.016 A 
ATOM     48  N   UNL     1     -49.802  43.007  25.611  1.00  0.00    -0.173 NA
ATOM     49  C   UNL     1     -50.456  43.333  27.754  1.00  0.00     0.025 A 
ATOM     50  H   UNL     1     -48.441  43.720  28.553  1.00  0.00     0.066 H 
ATOM     51  N   UNL     1     -50.831  43.045  26.475  1.00  0.00    -0.275 N 
ATOM     52  H   UNL     1     -51.168  43.384  28.566  1.00  0.00     0.084 H 
BRANCH  51  53
ATOM     53  C   UNL     1     -52.166  42.775  26.000  1.00  0.00     0.030 C 
ATOM     54  H   UNL     1     -52.106  42.013  25.219  1.00  0.00     0.048 H 
ATOM     55  H   UNL     1     -52.767  42.419  26.840  1.00  0.00     0.048 H 
ATOM     56  H   UNL     1     -52.599  43.692  25.592  1.00  0.00     0.048 H 
ENDBRANCH  51  53
ENDBRANCH  38  46
BRANCH  42  57
ATOM     57  N   UNL     1     -48.716  45.570  23.827  1.00  0.00    -0.383 N 
ATOM     58  H   UNL     1     -48.961  46.195  24.587  1.00  0.00     0.158 HD
ATOM     59  H   UNL     1     -48.963  45.905  22.902  1.00  0.00     0.158 HD
ENDBRANCH  42  57
ENDBRANCH  27  35
ENDBRANCH   1  23
TORSDOF 10
ENDMDL
