MODEL 1
REMARK VINA RESULT:      -9.7      0.000      0.000
REMARK SMILES CC(C)(C)OC1CN(Cc2cc3ccc(CNC(=O)c4cc(=O)n5ccccc5n4)cc3[nH]2)C1
REMARK SMILES IDX 9 1 8 4 6 5 7 6 34 7 5 13 2 14 1 15 3 19 4 23 10 27 11 28
REMARK SMILES IDX 33 29 12 30 32 32 13 34 31 35 14 36 15 38 16 41 17 44 18 45
REMARK SMILES IDX 19 47 20 48 21 49 30 50 22 51 29 53 23 54 24 55 28 56 25 57
REMARK SMILES IDX 27 58 26 60
REMARK H PARENT 9 2 9 3 6 8 7 9 7 10 34 11 34 12 1 16 1 17 1 18 3 20 3 21 3 22
REMARK H PARENT 4 24 4 25 4 26 11 31 33 33 13 37 31 39 14 40 16 42 16 43 17 46
REMARK H PARENT 21 52 28 59 25 61 27 62 26 63
REMARK Flexibility Score: inf
ROOT
ATOM      1  C   UNL     1     -46.381  32.278  24.309  1.00  0.00     0.039 C 
ATOM      2  H   UNL     1     -45.447  31.760  24.567  1.00  0.00     0.050 H 
ATOM      3  H   UNL     1     -46.165  32.795  23.365  1.00  0.00     0.050 H 
ENDROOT
BRANCH   1   4
ATOM      4  N   UNL     1     -47.395  31.260  24.037  1.00  0.00    -0.292 NA
ATOM      5  C   UNL     1     -47.914  29.234  24.253  1.00  0.00     0.084 C 
ATOM      6  C   UNL     1     -47.797  30.456  25.209  1.00  0.00     0.026 C 
ATOM      7  C   UNL     1     -46.904  30.033  23.380  1.00  0.00     0.026 C 
ATOM      8  H   UNL     1     -48.893  29.152  23.766  1.00  0.00     0.063 H 
ATOM      9  H   UNL     1     -47.058  30.309  26.003  1.00  0.00     0.046 H 
ATOM     10  H   UNL     1     -48.738  30.775  25.668  1.00  0.00     0.046 H 
ATOM     11  H   UNL     1     -47.095  29.993  22.303  1.00  0.00     0.046 H 
ATOM     12  H   UNL     1     -45.863  29.742  23.556  1.00  0.00     0.046 H 
BRANCH   5  13
ATOM     13  O   UNL     1     -47.436  27.958  24.745  1.00  0.00    -0.370 OA
BRANCH  13  14
ATOM     14  C   UNL     1     -48.361  27.023  25.315  1.00  0.00     0.060 C 
BRANCH  14  15
ATOM     15  C   UNL     1     -47.652  25.695  25.596  1.00  0.00    -0.036 C 
ATOM     16  H   UNL     1     -46.762  25.575  24.969  1.00  0.00     0.026 H 
ATOM     17  H   UNL     1     -48.323  24.848  25.412  1.00  0.00     0.026 H 
ATOM     18  H   UNL     1     -47.336  25.622  26.641  1.00  0.00     0.026 H 
ENDBRANCH  14  15
BRANCH  14  19
ATOM     19  C   UNL     1     -49.590  26.814  24.424  1.00  0.00    -0.036 C 
ATOM     20  H   UNL     1     -50.511  27.110  24.938  1.00  0.00     0.026 H 
ATOM     21  H   UNL     1     -49.698  25.764  24.132  1.00  0.00     0.026 H 
ATOM     22  H   UNL     1     -49.506  27.396  23.500  1.00  0.00     0.026 H 
ENDBRANCH  14  19
BRANCH  14  23
ATOM     23  C   UNL     1     -48.808  27.645  26.643  1.00  0.00    -0.036 C 
ATOM     24  H   UNL     1     -49.888  27.835  26.642  1.00  0.00     0.026 H 
ATOM     25  H   UNL     1     -48.325  28.617  26.801  1.00  0.00     0.026 H 
ATOM     26  H   UNL     1     -48.570  27.000  27.496  1.00  0.00     0.026 H 
ENDBRANCH  14  23
ENDBRANCH  13  14
ENDBRANCH   5  13
ENDBRANCH   1   4
BRANCH   1  27
ATOM     27  C   UNL     1     -46.661  33.309  25.353  1.00  0.00     0.030 A 
ATOM     28  C   UNL     1     -47.838  33.941  25.712  1.00  0.00    -0.032 A 
ATOM     29  N   UNL     1     -45.662  33.861  26.120  1.00  0.00    -0.357 N 
ATOM     30  C   UNL     1     -47.547  34.868  26.750  1.00  0.00    -0.000 A 
ATOM     31  H   UNL     1     -48.811  33.749  25.279  1.00  0.00     0.065 H 
ATOM     32  C   UNL     1     -46.177  34.798  26.987  1.00  0.00     0.046 A 
ATOM     33  H   UNL     1     -44.685  33.605  26.076  1.00  0.00     0.166 HD
ATOM     34  C   UNL     1     -48.321  35.761  27.513  1.00  0.00    -0.052 A 
ATOM     35  C   UNL     1     -45.535  35.580  27.954  1.00  0.00    -0.033 A 
ATOM     36  C   UNL     1     -47.698  36.550  28.490  1.00  0.00    -0.057 A 
ATOM     37  H   UNL     1     -49.392  35.835  27.352  1.00  0.00     0.063 H 
ATOM     38  C   UNL     1     -46.316  36.471  28.710  1.00  0.00    -0.027 A 
ATOM     39  H   UNL     1     -44.464  35.497  28.124  1.00  0.00     0.065 H 
ATOM     40  H   UNL     1     -48.308  37.229  29.079  1.00  0.00     0.063 H 
BRANCH  38  41
ATOM     41  C   UNL     1     -45.665  37.304  29.786  1.00  0.00     0.043 C 
ATOM     42  H   UNL     1     -44.926  36.710  30.336  1.00  0.00     0.054 H 
ATOM     43  H   UNL     1     -46.416  37.641  30.509  1.00  0.00     0.054 H 
BRANCH  41  44
ATOM     44  N   UNL     1     -44.970  38.428  29.212  1.00  0.00    -0.347 N 
ATOM     45  C   UNL     1     -45.601  39.375  28.444  1.00  0.00     0.270 C 
ATOM     46  H   UNL     1     -43.958  38.400  29.140  1.00  0.00     0.164 HD
ATOM     47  O   UNL     1     -46.814  39.460  28.301  1.00  0.00    -0.268 OA
BRANCH  45  48
ATOM     48  C   UNL     1     -44.623  40.308  27.769  1.00  0.00     0.136 A 
ATOM     49  C   UNL     1     -43.466  40.513  28.401  1.00  0.00     0.035 A 
ATOM     50  N   UNL     1     -44.978  40.889  26.572  1.00  0.00    -0.225 NA
ATOM     51  C   UNL     1     -42.490  41.422  27.788  1.00  0.00     0.258 A 
ATOM     52  H   UNL     1     -43.199  40.053  29.344  1.00  0.00     0.071 H 
ATOM     53  C   UNL     1     -44.115  41.696  26.037  1.00  0.00     0.140 A 
ATOM     54  O   UNL     1     -41.417  41.611  28.360  1.00  0.00    -0.269 OA
ATOM     55  N   UNL     1     -42.874  41.999  26.587  1.00  0.00    -0.268 N 
ATOM     56  C   UNL     1     -44.459  42.354  24.744  1.00  0.00    -0.019 A 
ATOM     57  C   UNL     1     -42.003  42.875  25.947  1.00  0.00     0.014 A 
ATOM     58  C   UNL     1     -43.588  43.191  24.167  1.00  0.00    -0.057 A 
ATOM     59  H   UNL     1     -45.424  42.127  24.310  1.00  0.00     0.066 H 
ATOM     60  C   UNL     1     -42.319  43.462  24.786  1.00  0.00    -0.045 A 
ATOM     61  H   UNL     1     -41.050  43.066  26.433  1.00  0.00     0.082 H 
ATOM     62  H   UNL     1     -43.821  43.679  23.227  1.00  0.00     0.062 H 
ATOM     63  H   UNL     1     -41.631  44.145  24.296  1.00  0.00     0.064 H 
ENDBRANCH  45  48
ENDBRANCH  41  44
ENDBRANCH  38  41
ENDBRANCH   1  27
TORSDOF 10
ENDMDL
MODEL 2
REMARK VINA RESULT:      -9.5      1.615      2.136
REMARK SMILES CC(C)(C)OC1CN(Cc2cc3ccc(CNC(=O)c4cc(=O)n5ccccc5n4)cc3[nH]2)C1
REMARK SMILES IDX 9 1 8 4 6 5 7 6 34 7 5 13 2 14 1 15 3 19 4 23 10 27 11 28
REMARK SMILES IDX 33 29 12 30 32 32 13 34 31 35 14 36 15 38 16 41 17 44 18 45
REMARK SMILES IDX 19 47 20 48 21 49 30 50 22 51 29 53 23 54 24 55 28 56 25 57
REMARK SMILES IDX 27 58 26 60
REMARK H PARENT 9 2 9 3 6 8 7 9 7 10 34 11 34 12 1 16 1 17 1 18 3 20 3 21 3 22
REMARK H PARENT 4 24 4 25 4 26 11 31 33 33 13 37 31 39 14 40 16 42 16 43 17 46
REMARK H PARENT 21 52 28 59 25 61 27 62 26 63
REMARK Flexibility Score: inf
ROOT
ATOM      1  C   UNL     1     -46.330  31.815  23.985  1.00  0.00     0.039 C 
ATOM      2  H   UNL     1     -45.274  31.527  24.072  1.00  0.00     0.050 H 
ATOM      3  H   UNL     1     -46.412  32.294  23.000  1.00  0.00     0.050 H 
ENDROOT
BRANCH   1   4
ATOM      4  N   UNL     1     -47.125  30.589  23.951  1.00  0.00    -0.292 NA
ATOM      5  C   UNL     1     -48.233  29.279  22.735  1.00  0.00     0.084 C 
ATOM      6  C   UNL     1     -46.725  29.618  22.912  1.00  0.00     0.026 C 
ATOM      7  C   UNL     1     -48.450  30.708  23.311  1.00  0.00     0.026 C 
ATOM      8  H   UNL     1     -48.591  28.506  23.427  1.00  0.00     0.063 H 
ATOM      9  H   UNL     1     -46.265  30.010  22.000  1.00  0.00     0.046 H 
ATOM     10  H   UNL     1     -46.107  28.795  23.284  1.00  0.00     0.046 H 
ATOM     11  H   UNL     1     -49.283  30.799  24.015  1.00  0.00     0.046 H 
ATOM     12  H   UNL     1     -48.573  31.468  22.532  1.00  0.00     0.046 H 
BRANCH   5  13
ATOM     13  O   UNL     1     -48.714  29.074  21.384  1.00  0.00    -0.370 OA
BRANCH  13  14
ATOM     14  C   UNL     1     -49.939  28.361  21.165  1.00  0.00     0.060 C 
BRANCH  14  15
ATOM     15  C   UNL     1     -51.094  29.353  21.000  1.00  0.00    -0.036 C 
ATOM     16  H   UNL     1     -51.588  29.236  20.030  1.00  0.00     0.026 H 
ATOM     17  H   UNL     1     -50.737  30.386  21.086  1.00  0.00     0.026 H 
ATOM     18  H   UNL     1     -51.852  29.219  21.778  1.00  0.00     0.026 H 
ENDBRANCH  14  15
BRANCH  14  19
ATOM     19  C   UNL     1     -50.229  27.357  22.284  1.00  0.00    -0.036 C 
ATOM     20  H   UNL     1     -49.333  27.154  22.880  1.00  0.00     0.026 H 
ATOM     21  H   UNL     1     -50.582  26.402  21.883  1.00  0.00     0.026 H 
ATOM     22  H   UNL     1     -51.012  27.732  22.952  1.00  0.00     0.026 H 
ENDBRANCH  14  19
BRANCH  14  23
ATOM     23  C   UNL     1     -49.739  27.599  19.849  1.00  0.00    -0.036 C 
ATOM     24  H   UNL     1     -48.729  27.176  19.793  1.00  0.00     0.026 H 
ATOM     25  H   UNL     1     -49.841  28.271  18.989  1.00  0.00     0.026 H 
ATOM     26  H   UNL     1     -50.462  26.783  19.737  1.00  0.00     0.026 H 
ENDBRANCH  14  23
ENDBRANCH  13  14
ENDBRANCH   5  13
ENDBRANCH   1   4
BRANCH   1  27
ATOM     27  C   UNL     1     -46.635  32.840  25.028  1.00  0.00     0.030 A 
ATOM     28  C   UNL     1     -47.796  33.539  25.303  1.00  0.00    -0.032 A 
ATOM     29  N   UNL     1     -45.674  33.309  25.894  1.00  0.00    -0.357 N 
ATOM     30  C   UNL     1     -47.540  34.422  26.387  1.00  0.00    -0.000 A 
ATOM     31  H   UNL     1     -48.738  33.420  24.782  1.00  0.00     0.065 H 
ATOM     32  C   UNL     1     -46.203  34.258  26.738  1.00  0.00     0.046 A 
ATOM     33  H   UNL     1     -44.716  32.990  25.927  1.00  0.00     0.166 HD
ATOM     34  C   UNL     1     -48.320  35.347  27.105  1.00  0.00    -0.052 A 
ATOM     35  C   UNL     1     -45.600  34.975  27.779  1.00  0.00    -0.033 A 
ATOM     36  C   UNL     1     -47.736  36.071  28.153  1.00  0.00    -0.057 A 
ATOM     37  H   UNL     1     -49.366  35.494  26.854  1.00  0.00     0.063 H 
ATOM     38  C   UNL     1     -46.387  35.898  28.489  1.00  0.00    -0.027 A 
ATOM     39  H   UNL     1     -44.556  34.818  28.038  1.00  0.00     0.065 H 
ATOM     40  H   UNL     1     -48.352  36.775  28.706  1.00  0.00     0.063 H 
BRANCH  38  41
ATOM     41  C   UNL     1     -45.781  36.662  29.640  1.00  0.00     0.043 C 
ATOM     42  H   UNL     1     -45.057  36.038  30.175  1.00  0.00     0.054 H 
ATOM     43  H   UNL     1     -46.560  36.945  30.357  1.00  0.00     0.054 H 
BRANCH  41  44
ATOM     44  N   UNL     1     -45.078  37.827  29.165  1.00  0.00    -0.347 N 
ATOM     45  C   UNL     1     -45.724  38.966  28.752  1.00  0.00     0.270 C 
ATOM     46  H   UNL     1     -44.109  37.737  28.876  1.00  0.00     0.164 HD
ATOM     47  O   UNL     1     -46.923  39.174  28.890  1.00  0.00    -0.268 OA
BRANCH  45  48
ATOM     48  C   UNL     1     -44.788  39.944  28.084  1.00  0.00     0.136 A 
ATOM     49  C   UNL     1     -43.637  40.189  28.714  1.00  0.00     0.035 A 
ATOM     50  N   UNL     1     -45.171  40.523  26.895  1.00  0.00    -0.225 NA
ATOM     51  C   UNL     1     -42.701  41.143  28.106  1.00  0.00     0.258 A 
ATOM     52  H   UNL     1     -43.348  39.730  29.650  1.00  0.00     0.071 H 
ATOM     53  C   UNL     1     -44.344  41.370  26.365  1.00  0.00     0.140 A 
ATOM     54  O   UNL     1     -41.634  41.369  28.676  1.00  0.00    -0.269 OA
ATOM     55  N   UNL     1     -43.114  41.717  26.913  1.00  0.00    -0.268 N 
ATOM     56  C   UNL     1     -44.720  42.028  25.081  1.00  0.00    -0.019 A 
ATOM     57  C   UNL     1     -42.282  42.634  26.279  1.00  0.00     0.014 A 
ATOM     58  C   UNL     1     -43.885  42.904  24.509  1.00  0.00    -0.057 A 
ATOM     59  H   UNL     1     -45.677  41.766  24.648  1.00  0.00     0.066 H 
ATOM     60  C   UNL     1     -42.626  43.220  25.126  1.00  0.00    -0.045 A 
ATOM     61  H   UNL     1     -41.334  42.858  26.763  1.00  0.00     0.082 H 
ATOM     62  H   UNL     1     -44.142  43.393  23.575  1.00  0.00     0.062 H 
ATOM     63  H   UNL     1     -41.968  43.935  24.640  1.00  0.00     0.064 H 
ENDBRANCH  45  48
ENDBRANCH  41  44
ENDBRANCH  38  41
ENDBRANCH   1  27
TORSDOF 10
ENDMDL
MODEL 3
REMARK VINA RESULT:      -9.3      1.821     12.245
REMARK SMILES CC(C)(C)OC1CN(Cc2cc3ccc(CNC(=O)c4cc(=O)n5ccccc5n4)cc3[nH]2)C1
REMARK SMILES IDX 9 1 8 4 6 5 7 6 34 7 5 13 2 14 1 15 3 19 4 23 10 27 11 28
REMARK SMILES IDX 33 29 12 30 32 32 13 34 31 35 14 36 15 38 16 41 17 44 18 45
REMARK SMILES IDX 19 47 20 48 21 49 30 50 22 51 29 53 23 54 24 55 28 56 25 57
REMARK SMILES IDX 27 58 26 60
REMARK H PARENT 9 2 9 3 6 8 7 9 7 10 34 11 34 12 1 16 1 17 1 18 3 20 3 21 3 22
REMARK H PARENT 4 24 4 25 4 26 11 31 33 33 13 37 31 39 14 40 16 42 16 43 17 46
REMARK H PARENT 21 52 28 59 25 61 27 62 26 63
REMARK Flexibility Score: inf
ROOT
ATOM      1  C   UNL     1     -45.283  37.346  30.053  1.00  0.00     0.039 C 
ATOM      2  H   UNL     1     -44.301  36.921  30.299  1.00  0.00     0.050 H 
ATOM      3  H   UNL     1     -45.870  37.255  30.977  1.00  0.00     0.050 H 
ENDROOT
BRANCH   1   4
ATOM      4  N   UNL     1     -45.098  38.771  29.782  1.00  0.00    -0.292 NA
ATOM      5  C   UNL     1     -44.190  40.187  28.521  1.00  0.00     0.084 C 
ATOM      6  C   UNL     1     -45.365  39.177  28.387  1.00  0.00     0.026 C 
ATOM      7  C   UNL     1     -43.697  39.212  29.628  1.00  0.00     0.026 C 
ATOM      8  H   UNL     1     -44.491  41.155  28.940  1.00  0.00     0.063 H 
ATOM      9  H   UNL     1     -45.202  38.433  27.601  1.00  0.00     0.046 H 
ATOM     10  H   UNL     1     -46.349  39.630  28.234  1.00  0.00     0.046 H 
ATOM     11  H   UNL     1     -43.279  39.696  30.516  1.00  0.00     0.046 H 
ATOM     12  H   UNL     1     -42.971  38.480  29.261  1.00  0.00     0.046 H 
BRANCH   5  13
ATOM     13  O   UNL     1     -43.305  40.332  27.382  1.00  0.00    -0.370 OA
BRANCH  13  14
ATOM     14  C   UNL     1     -42.916  41.641  26.946  1.00  0.00     0.060 C 
BRANCH  14  15
ATOM     15  C   UNL     1     -43.222  42.667  28.041  1.00  0.00    -0.036 C 
ATOM     16  H   UNL     1     -42.904  42.309  29.026  1.00  0.00     0.026 H 
ATOM     17  H   UNL     1     -44.296  42.887  28.080  1.00  0.00     0.026 H 
ATOM     18  H   UNL     1     -42.715  43.619  27.853  1.00  0.00     0.026 H 
ENDBRANCH  14  15
BRANCH  14  19
ATOM     19  C   UNL     1     -43.586  42.029  25.624  1.00  0.00    -0.036 C 
ATOM     20  H   UNL     1     -44.352  41.301  25.335  1.00  0.00     0.026 H 
ATOM     21  H   UNL     1     -42.858  42.083  24.808  1.00  0.00     0.026 H 
ATOM     22  H   UNL     1     -44.056  43.016  25.699  1.00  0.00     0.026 H 
ENDBRANCH  14  19
BRANCH  14  23
ATOM     23  C   UNL     1     -41.399  41.569  26.735  1.00  0.00    -0.036 C 
ATOM     24  H   UNL     1     -41.158  40.987  25.837  1.00  0.00     0.026 H 
ATOM     25  H   UNL     1     -40.912  41.058  27.573  1.00  0.00     0.026 H 
ATOM     26  H   UNL     1     -40.954  42.565  26.632  1.00  0.00     0.026 H 
ENDBRANCH  14  23
ENDBRANCH  13  14
ENDBRANCH   5  13
ENDBRANCH   1   4
BRANCH   1  27
ATOM     27  C   UNL     1     -45.926  36.494  29.007  1.00  0.00     0.030 A 
ATOM     28  C   UNL     1     -47.257  36.227  28.745  1.00  0.00    -0.032 A 
ATOM     29  N   UNL     1     -45.187  35.741  28.125  1.00  0.00    -0.357 N 
ATOM     30  C   UNL     1     -47.323  35.321  27.652  1.00  0.00    -0.000 A 
ATOM     31  H   UNL     1     -48.099  36.648  29.280  1.00  0.00     0.065 H 
ATOM     32  C   UNL     1     -46.012  35.032  27.282  1.00  0.00     0.046 A 
ATOM     33  H   UNL     1     -44.177  35.721  28.080  1.00  0.00     0.166 HD
ATOM     34  C   UNL     1     -48.376  34.718  26.939  1.00  0.00    -0.052 A 
ATOM     35  C   UNL     1     -45.696  34.166  26.228  1.00  0.00    -0.033 A 
ATOM     36  C   UNL     1     -48.079  33.852  25.878  1.00  0.00    -0.057 A 
ATOM     37  H   UNL     1     -49.408  34.926  27.204  1.00  0.00     0.063 H 
ATOM     38  C   UNL     1     -46.754  33.568  25.524  1.00  0.00    -0.027 A 
ATOM     39  H   UNL     1     -44.662  33.968  25.955  1.00  0.00     0.065 H 
ATOM     40  H   UNL     1     -48.902  33.400  25.329  1.00  0.00     0.063 H 
BRANCH  38  41
ATOM     41  C   UNL     1     -46.452  32.657  24.359  1.00  0.00     0.043 C 
ATOM     42  H   UNL     1     -45.370  32.526  24.246  1.00  0.00     0.054 H 
ATOM     43  H   UNL     1     -46.825  33.098  23.428  1.00  0.00     0.054 H 
BRANCH  41  44
ATOM     44  N   UNL     1     -47.023  31.352  24.570  1.00  0.00    -0.347 N 
ATOM     45  C   UNL     1     -47.677  30.660  23.580  1.00  0.00     0.270 C 
ATOM     46  H   UNL     1     -47.188  31.030  25.518  1.00  0.00     0.164 HD
ATOM     47  O   UNL     1     -47.705  30.992  22.401  1.00  0.00    -0.268 OA
BRANCH  45  48
ATOM     48  C   UNL     1     -48.386  29.436  24.110  1.00  0.00     0.136 A 
ATOM     49  C   UNL     1     -49.716  29.427  24.001  1.00  0.00     0.035 A 
ATOM     50  N   UNL     1     -47.636  28.427  24.672  1.00  0.00    -0.225 NA
ATOM     51  C   UNL     1     -50.447  28.261  24.514  1.00  0.00     0.258 A 
ATOM     52  H   UNL     1     -50.295  30.228  23.561  1.00  0.00     0.071 H 
ATOM     53  C   UNL     1     -48.287  27.402  25.129  1.00  0.00     0.140 A 
ATOM     54  O   UNL     1     -51.673  28.241  24.412  1.00  0.00    -0.269 OA
ATOM     55  N   UNL     1     -49.670  27.262  25.081  1.00  0.00    -0.268 N 
ATOM     56  C   UNL     1     -47.517  26.288  25.752  1.00  0.00    -0.019 A 
ATOM     57  C   UNL     1     -50.292  26.128  25.592  1.00  0.00     0.014 A 
ATOM     58  C   UNL     1     -48.161  25.216  26.231  1.00  0.00    -0.057 A 
ATOM     59  H   UNL     1     -46.440  26.388  25.796  1.00  0.00     0.066 H 
ATOM     60  C   UNL     1     -49.594  25.131  26.150  1.00  0.00    -0.045 A 
ATOM     61  H   UNL     1     -51.376  26.085  25.521  1.00  0.00     0.082 H 
ATOM     62  H   UNL     1     -47.618  24.396  26.689  1.00  0.00     0.062 H 
ATOM     63  H   UNL     1     -50.091  24.251  26.547  1.00  0.00     0.064 H 
ENDBRANCH  45  48
ENDBRANCH  41  44
ENDBRANCH  38  41
ENDBRANCH   1  27
TORSDOF 10
ENDMDL
MODEL 4
REMARK VINA RESULT:      -9.1      2.199      3.041
REMARK SMILES CC(C)(C)OC1CN(Cc2cc3ccc(CNC(=O)c4cc(=O)n5ccccc5n4)cc3[nH]2)C1
REMARK SMILES IDX 9 1 8 4 6 5 7 6 34 7 5 13 2 14 1 15 3 19 4 23 10 27 11 28
REMARK SMILES IDX 33 29 12 30 32 32 13 34 31 35 14 36 15 38 16 41 17 44 18 45
REMARK SMILES IDX 19 47 20 48 21 49 30 50 22 51 29 53 23 54 24 55 28 56 25 57
REMARK SMILES IDX 27 58 26 60
REMARK H PARENT 9 2 9 3 6 8 7 9 7 10 34 11 34 12 1 16 1 17 1 18 3 20 3 21 3 22
REMARK H PARENT 4 24 4 25 4 26 11 31 33 33 13 37 31 39 14 40 16 42 16 43 17 46
REMARK H PARENT 21 52 28 59 25 61 27 62 26 63
REMARK Flexibility Score: inf
ROOT
ATOM      1  C   UNL     1     -48.289  31.114  25.811  1.00  0.00     0.039 C 
ATOM      2  H   UNL     1     -49.383  31.105  25.907  1.00  0.00     0.050 H 
ATOM      3  H   UNL     1     -47.937  30.350  26.517  1.00  0.00     0.050 H 
ENDROOT
BRANCH   1   4
ATOM      4  N   UNL     1     -47.955  30.660  24.462  1.00  0.00    -0.292 NA
ATOM      5  C   UNL     1     -48.634  30.480  22.480  1.00  0.00     0.084 C 
ATOM      6  C   UNL     1     -48.189  31.656  23.396  1.00  0.00     0.026 C 
ATOM      7  C   UNL     1     -48.946  29.768  23.827  1.00  0.00     0.026 C 
ATOM      8  H   UNL     1     -47.802  29.999  21.952  1.00  0.00     0.063 H 
ATOM      9  H   UNL     1     -48.978  32.396  23.557  1.00  0.00     0.046 H 
ATOM     10  H   UNL     1     -47.285  32.180  23.069  1.00  0.00     0.046 H 
ATOM     11  H   UNL     1     -48.681  28.707  23.859  1.00  0.00     0.046 H 
ATOM     12  H   UNL     1     -49.992  29.871  24.133  1.00  0.00     0.046 H 
BRANCH   5  13
ATOM     13  O   UNL     1     -49.776  30.706  21.618  1.00  0.00    -0.370 OA
BRANCH  13  14
ATOM     14  C   UNL     1     -49.684  30.401  20.220  1.00  0.00     0.060 C 
BRANCH  14  15
ATOM     15  C   UNL     1     -48.500  31.150  19.602  1.00  0.00    -0.036 C 
ATOM     16  H   UNL     1     -48.777  32.169  19.311  1.00  0.00     0.026 H 
ATOM     17  H   UNL     1     -48.126  30.625  18.715  1.00  0.00     0.026 H 
ATOM     18  H   UNL     1     -47.659  31.220  20.300  1.00  0.00     0.026 H 
ENDBRANCH  14  15
BRANCH  14  19
ATOM     19  C   UNL     1     -50.984  30.715  19.475  1.00  0.00    -0.036 C 
ATOM     20  H   UNL     1     -51.350  31.720  19.715  1.00  0.00     0.026 H 
ATOM     21  H   UNL     1     -51.776  30.006  19.737  1.00  0.00     0.026 H 
ATOM     22  H   UNL     1     -50.840  30.649  18.391  1.00  0.00     0.026 H 
ENDBRANCH  14  19
BRANCH  14  23
ATOM     23  C   UNL     1     -49.418  28.893  20.146  1.00  0.00    -0.036 C 
ATOM     24  H   UNL     1     -50.155  28.398  19.502  1.00  0.00     0.026 H 
ATOM     25  H   UNL     1     -49.514  28.430  21.136  1.00  0.00     0.026 H 
ATOM     26  H   UNL     1     -48.417  28.674  19.759  1.00  0.00     0.026 H 
ENDBRANCH  14  23
ENDBRANCH  13  14
ENDBRANCH   5  13
ENDBRANCH   1   4
BRANCH   1  27
ATOM     27  C   UNL     1     -47.778  32.441  26.268  1.00  0.00     0.030 A 
ATOM     28  C   UNL     1     -46.496  32.871  26.558  1.00  0.00    -0.032 A 
ATOM     29  N   UNL     1     -48.622  33.490  26.549  1.00  0.00    -0.357 N 
ATOM     30  C   UNL     1     -46.565  34.225  26.985  1.00  0.00    -0.000 A 
ATOM     31  H   UNL     1     -45.598  32.274  26.462  1.00  0.00     0.065 H 
ATOM     32  C   UNL     1     -47.909  34.589  26.971  1.00  0.00     0.046 A 
ATOM     33  H   UNL     1     -49.628  33.473  26.443  1.00  0.00     0.166 HD
ATOM     34  C   UNL     1     -45.610  35.178  27.383  1.00  0.00    -0.052 A 
ATOM     35  C   UNL     1     -48.352  35.866  27.335  1.00  0.00    -0.033 A 
ATOM     36  C   UNL     1     -46.033  36.464  27.747  1.00  0.00    -0.057 A 
ATOM     37  H   UNL     1     -44.555  34.923  27.402  1.00  0.00     0.063 H 
ATOM     38  C   UNL     1     -47.390  36.811  27.733  1.00  0.00    -0.027 A 
ATOM     39  H   UNL     1     -49.407  36.125  27.304  1.00  0.00     0.065 H 
ATOM     40  H   UNL     1     -45.284  37.194  28.043  1.00  0.00     0.063 H 
BRANCH  38  41
ATOM     41  C   UNL     1     -47.827  38.208  28.098  1.00  0.00     0.043 C 
ATOM     42  H   UNL     1     -48.084  38.263  29.162  1.00  0.00     0.054 H 
ATOM     43  H   UNL     1     -48.723  38.484  27.531  1.00  0.00     0.054 H 
BRANCH  41  44
ATOM     44  N   UNL     1     -46.765  39.153  27.863  1.00  0.00    -0.347 N 
ATOM     45  C   UNL     1     -46.749  39.996  26.779  1.00  0.00     0.270 C 
ATOM     46  H   UNL     1     -45.879  39.032  28.344  1.00  0.00     0.164 HD
ATOM     47  O   UNL     1     -47.685  40.150  26.005  1.00  0.00    -0.268 OA
BRANCH  45  48
ATOM     48  C   UNL     1     -45.428  40.712  26.631  1.00  0.00     0.136 A 
ATOM     49  C   UNL     1     -44.529  40.505  27.596  1.00  0.00     0.035 A 
ATOM     50  N   UNL     1     -45.235  41.529  25.539  1.00  0.00    -0.225 NA
ATOM     51  C   UNL     1     -43.235  41.191  27.499  1.00  0.00     0.258 A 
ATOM     52  H   UNL     1     -44.693  39.863  28.451  1.00  0.00     0.071 H 
ATOM     53  C   UNL     1     -44.092  42.138  25.462  1.00  0.00     0.140 A 
ATOM     54  O   UNL     1     -42.397  41.000  28.380  1.00  0.00    -0.269 OA
ATOM     55  N   UNL     1     -43.068  42.013  26.394  1.00  0.00    -0.268 N 
ATOM     56  C   UNL     1     -43.840  43.038  24.300  1.00  0.00    -0.019 A 
ATOM     57  C   UNL     1     -41.869  42.700  26.236  1.00  0.00     0.014 A 
ATOM     58  C   UNL     1     -42.669  43.678  24.192  1.00  0.00    -0.057 A 
ATOM     59  H   UNL     1     -44.632  43.144  23.570  1.00  0.00     0.066 H 
ATOM     60  C   UNL     1     -41.649  43.506  25.190  1.00  0.00    -0.045 A 
ATOM     61  H   UNL     1     -41.112  42.555  27.003  1.00  0.00     0.082 H 
ATOM     62  H   UNL     1     -42.469  44.338  23.354  1.00  0.00     0.062 H 
ATOM     63  H   UNL     1     -40.709  44.038  25.077  1.00  0.00     0.064 H 
ENDBRANCH  45  48
ENDBRANCH  41  44
ENDBRANCH  38  41
ENDBRANCH   1  27
TORSDOF 10
ENDMDL
MODEL 5
REMARK VINA RESULT:      -9.1      2.087      3.174
REMARK SMILES CC(C)(C)OC1CN(Cc2cc3ccc(CNC(=O)c4cc(=O)n5ccccc5n4)cc3[nH]2)C1
REMARK SMILES IDX 9 1 8 4 6 5 7 6 34 7 5 13 2 14 1 15 3 19 4 23 10 27 11 28
REMARK SMILES IDX 33 29 12 30 32 32 13 34 31 35 14 36 15 38 16 41 17 44 18 45
REMARK SMILES IDX 19 47 20 48 21 49 30 50 22 51 29 53 23 54 24 55 28 56 25 57
REMARK SMILES IDX 27 58 26 60
REMARK H PARENT 9 2 9 3 6 8 7 9 7 10 34 11 34 12 1 16 1 17 1 18 3 20 3 21 3 22
REMARK H PARENT 4 24 4 25 4 26 11 31 33 33 13 37 31 39 14 40 16 42 16 43 17 46
REMARK H PARENT 21 52 28 59 25 61 27 62 26 63
REMARK Flexibility Score: inf
ROOT
ATOM      1  C   UNL     1     -46.048  30.497  22.934  1.00  0.00     0.039 C 
ATOM      2  H   UNL     1     -45.022  30.173  23.157  1.00  0.00     0.050 H 
ATOM      3  H   UNL     1     -45.972  31.049  21.989  1.00  0.00     0.050 H 
ENDROOT
BRANCH   1   4
ATOM      4  N   UNL     1     -46.850  29.299  22.687  1.00  0.00    -0.292 NA
ATOM      5  C   UNL     1     -48.698  28.356  23.024  1.00  0.00     0.084 C 
ATOM      6  C   UNL     1     -48.208  29.558  22.167  1.00  0.00     0.026 C 
ATOM      7  C   UNL     1     -47.442  28.672  23.885  1.00  0.00     0.026 C 
ATOM      8  H   UNL     1     -48.606  27.389  22.513  1.00  0.00     0.063 H 
ATOM      9  H   UNL     1     -48.686  30.503  22.443  1.00  0.00     0.046 H 
ATOM     10  H   UNL     1     -48.305  29.426  21.085  1.00  0.00     0.046 H 
ATOM     11  H   UNL     1     -46.899  27.793  24.247  1.00  0.00     0.046 H 
ATOM     12  H   UNL     1     -47.662  29.318  24.741  1.00  0.00     0.046 H 
BRANCH   5  13
ATOM     13  O   UNL     1     -49.970  28.499  23.704  1.00  0.00    -0.370 OA
BRANCH  13  14
ATOM     14  C   UNL     1     -51.175  28.068  23.057  1.00  0.00     0.060 C 
BRANCH  14  15
ATOM     15  C   UNL     1     -52.122  27.445  24.087  1.00  0.00    -0.036 C 
ATOM     16  H   UNL     1     -53.015  28.061  24.235  1.00  0.00     0.026 H 
ATOM     17  H   UNL     1     -51.620  27.320  25.053  1.00  0.00     0.026 H 
ATOM     18  H   UNL     1     -52.453  26.448  23.776  1.00  0.00     0.026 H 
ENDBRANCH  14  15
BRANCH  14  19
ATOM     19  C   UNL     1     -50.895  27.097  21.906  1.00  0.00    -0.036 C 
ATOM     20  H   UNL     1     -51.782  26.503  21.661  1.00  0.00     0.026 H 
ATOM     21  H   UNL     1     -50.090  26.400  22.159  1.00  0.00     0.026 H 
ATOM     22  H   UNL     1     -50.580  27.638  21.007  1.00  0.00     0.026 H 
ENDBRANCH  14  19
BRANCH  14  23
ATOM     23  C   UNL     1     -51.815  29.342  22.492  1.00  0.00    -0.036 C 
ATOM     24  H   UNL     1     -51.394  29.587  21.510  1.00  0.00     0.026 H 
ATOM     25  H   UNL     1     -51.609  30.203  23.139  1.00  0.00     0.026 H 
ATOM     26  H   UNL     1     -52.901  29.241  22.388  1.00  0.00     0.026 H 
ENDBRANCH  14  23
ENDBRANCH  13  14
ENDBRANCH   5  13
ENDBRANCH   1   4
BRANCH   1  27
ATOM     27  C   UNL     1     -46.491  31.450  23.997  1.00  0.00     0.030 A 
ATOM     28  C   UNL     1     -47.675  32.145  24.157  1.00  0.00    -0.032 A 
ATOM     29  N   UNL     1     -45.657  31.842  25.018  1.00  0.00    -0.357 N 
ATOM     30  C   UNL     1     -47.568  32.945  25.327  1.00  0.00    -0.000 A 
ATOM     31  H   UNL     1     -48.536  32.076  23.505  1.00  0.00     0.065 H 
ATOM     32  C   UNL     1     -46.293  32.737  25.847  1.00  0.00     0.046 A 
ATOM     33  H   UNL     1     -44.714  31.508  25.161  1.00  0.00     0.166 HD
ATOM     34  C   UNL     1     -48.435  33.829  25.994  1.00  0.00    -0.052 A 
ATOM     35  C   UNL     1     -45.837  33.370  27.010  1.00  0.00    -0.033 A 
ATOM     36  C   UNL     1     -47.999  34.469  27.163  1.00  0.00    -0.057 A 
ATOM     37  H   UNL     1     -49.436  34.009  25.613  1.00  0.00     0.063 H 
ATOM     38  C   UNL     1     -46.711  34.253  27.669  1.00  0.00    -0.027 A 
ATOM     39  H   UNL     1     -44.840  33.180  27.399  1.00  0.00     0.065 H 
ATOM     40  H   UNL     1     -48.683  35.142  27.674  1.00  0.00     0.063 H 
BRANCH  38  41
ATOM     41  C   UNL     1     -46.267  34.925  28.944  1.00  0.00     0.043 C 
ATOM     42  H   UNL     1     -45.570  34.283  29.494  1.00  0.00     0.054 H 
ATOM     43  H   UNL     1     -47.129  35.104  29.596  1.00  0.00     0.054 H 
BRANCH  41  44
ATOM     44  N   UNL     1     -45.580  36.159  28.658  1.00  0.00    -0.347 N 
ATOM     45  C   UNL     1     -45.470  37.176  29.574  1.00  0.00     0.270 C 
ATOM     46  H   UNL     1     -45.394  36.410  27.692  1.00  0.00     0.164 HD
ATOM     47  O   UNL     1     -45.790  37.087  30.753  1.00  0.00    -0.268 OA
BRANCH  45  48
ATOM     48  C   UNL     1     -44.919  38.441  28.961  1.00  0.00     0.136 A 
ATOM     49  C   UNL     1     -45.507  38.862  27.839  1.00  0.00     0.035 A 
ATOM     50  N   UNL     1     -43.858  39.069  29.574  1.00  0.00    -0.225 NA
ATOM     51  C   UNL     1     -44.997  40.081  27.202  1.00  0.00     0.258 A 
ATOM     52  H   UNL     1     -46.339  38.358  27.364  1.00  0.00     0.071 H 
ATOM     53  C   UNL     1     -43.406  40.142  29.004  1.00  0.00     0.140 A 
ATOM     54  O   UNL     1     -45.538  40.480  26.171  1.00  0.00    -0.269 OA
ATOM     55  N   UNL     1     -43.924  40.691  27.835  1.00  0.00    -0.268 N 
ATOM     56  C   UNL     1     -42.254  40.852  29.628  1.00  0.00    -0.019 A 
ATOM     57  C   UNL     1     -43.383  41.849  27.287  1.00  0.00     0.014 A 
ATOM     58  C   UNL     1     -41.767  41.964  29.063  1.00  0.00    -0.057 A 
ATOM     59  H   UNL     1     -41.842  40.432  30.537  1.00  0.00     0.066 H 
ATOM     60  C   UNL     1     -42.348  42.481  27.854  1.00  0.00    -0.045 A 
ATOM     61  H   UNL     1     -43.837  42.222  26.372  1.00  0.00     0.082 H 
ATOM     62  H   UNL     1     -40.929  42.494  29.503  1.00  0.00     0.062 H 
ATOM     63  H   UNL     1     -41.933  43.385  27.417  1.00  0.00     0.064 H 
ENDBRANCH  45  48
ENDBRANCH  41  44
ENDBRANCH  38  41
ENDBRANCH   1  27
TORSDOF 10
ENDMDL
MODEL 6
REMARK VINA RESULT:      -9.0      1.968      2.506
REMARK SMILES CC(C)(C)OC1CN(Cc2cc3ccc(CNC(=O)c4cc(=O)n5ccccc5n4)cc3[nH]2)C1
REMARK SMILES IDX 9 1 8 4 6 5 7 6 34 7 5 13 2 14 1 15 3 19 4 23 10 27 11 28
REMARK SMILES IDX 33 29 12 30 32 32 13 34 31 35 14 36 15 38 16 41 17 44 18 45
REMARK SMILES IDX 19 47 20 48 21 49 30 50 22 51 29 53 23 54 24 55 28 56 25 57
REMARK SMILES IDX 27 58 26 60
REMARK H PARENT 9 2 9 3 6 8 7 9 7 10 34 11 34 12 1 16 1 17 1 18 3 20 3 21 3 22
REMARK H PARENT 4 24 4 25 4 26 11 31 33 33 13 37 31 39 14 40 16 42 16 43 17 46
REMARK H PARENT 21 52 28 59 25 61 27 62 26 63
REMARK Flexibility Score: inf
ROOT
ATOM      1  C   UNL     1     -46.953  32.210  25.358  1.00  0.00     0.039 C 
ATOM      2  H   UNL     1     -46.091  31.644  25.737  1.00  0.00     0.050 H 
ATOM      3  H   UNL     1     -46.729  32.391  24.299  1.00  0.00     0.050 H 
ENDROOT
BRANCH   1   4
ATOM      4  N   UNL     1     -48.124  31.337  25.424  1.00  0.00    -0.292 NA
ATOM      5  C   UNL     1     -49.522  30.231  24.309  1.00  0.00     0.084 C 
ATOM      6  C   UNL     1     -48.010  30.086  24.647  1.00  0.00     0.026 C 
ATOM      7  C   UNL     1     -49.266  31.741  24.581  1.00  0.00     0.026 C 
ATOM      8  H   UNL     1     -50.183  29.791  25.065  1.00  0.00     0.063 H 
ATOM      9  H   UNL     1     -47.370  30.095  23.760  1.00  0.00     0.046 H 
ATOM     10  H   UNL     1     -47.754  29.209  25.249  1.00  0.00     0.046 H 
ATOM     11  H   UNL     1     -50.067  32.253  25.124  1.00  0.00     0.046 H 
ATOM     12  H   UNL     1     -49.051  32.310  23.670  1.00  0.00     0.046 H 
BRANCH   5  13
ATOM     13  O   UNL     1     -49.934  29.904  22.959  1.00  0.00    -0.370 OA
BRANCH  13  14
ATOM     14  C   UNL     1     -51.072  29.057  22.748  1.00  0.00     0.060 C 
BRANCH  14  15
ATOM     15  C   UNL     1     -51.321  28.202  23.993  1.00  0.00    -0.036 C 
ATOM     16  H   UNL     1     -50.561  28.381  24.762  1.00  0.00     0.026 H 
ATOM     17  H   UNL     1     -51.316  27.135  23.741  1.00  0.00     0.026 H 
ATOM     18  H   UNL     1     -52.299  28.413  24.437  1.00  0.00     0.026 H 
ENDBRANCH  14  15
BRANCH  14  19
ATOM     19  C   UNL     1     -50.915  28.183  21.500  1.00  0.00    -0.036 C 
ATOM     20  H   UNL     1     -51.734  27.461  21.413  1.00  0.00     0.026 H 
ATOM     21  H   UNL     1     -49.978  27.617  21.525  1.00  0.00     0.026 H 
ATOM     22  H   UNL     1     -50.895  28.796  20.593  1.00  0.00     0.026 H 
ENDBRANCH  14  19
BRANCH  14  23
ATOM     23  C   UNL     1     -52.258  30.008  22.545  1.00  0.00    -0.036 C 
ATOM     24  H   UNL     1     -53.191  29.445  22.421  1.00  0.00     0.026 H 
ATOM     25  H   UNL     1     -52.132  30.601  21.632  1.00  0.00     0.026 H 
ATOM     26  H   UNL     1     -52.377  30.696  23.389  1.00  0.00     0.026 H 
ENDBRANCH  14  23
ENDBRANCH  13  14
ENDBRANCH   5  13
ENDBRANCH   1   4
BRANCH   1  27
ATOM     27  C   UNL     1     -47.002  33.531  26.056  1.00  0.00     0.030 A 
ATOM     28  C   UNL     1     -48.060  34.384  26.311  1.00  0.00    -0.032 A 
ATOM     29  N   UNL     1     -45.867  34.154  26.519  1.00  0.00    -0.357 N 
ATOM     30  C   UNL     1     -47.555  35.531  26.982  1.00  0.00    -0.000 A 
ATOM     31  H   UNL     1     -49.094  34.197  26.051  1.00  0.00     0.065 H 
ATOM     32  C   UNL     1     -46.179  35.362  27.100  1.00  0.00     0.046 A 
ATOM     33  H   UNL     1     -44.931  33.775  26.466  1.00  0.00     0.166 HD
ATOM     34  C   UNL     1     -48.140  36.701  27.501  1.00  0.00    -0.052 A 
ATOM     35  C   UNL     1     -45.349  36.307  27.716  1.00  0.00    -0.033 A 
ATOM     36  C   UNL     1     -47.328  37.656  28.126  1.00  0.00    -0.057 A 
ATOM     37  H   UNL     1     -49.212  36.859  27.426  1.00  0.00     0.063 H 
ATOM     38  C   UNL     1     -45.943  37.472  28.230  1.00  0.00    -0.027 A 
ATOM     39  H   UNL     1     -44.278  36.143  27.803  1.00  0.00     0.065 H 
ATOM     40  H   UNL     1     -47.793  38.551  28.532  1.00  0.00     0.063 H 
BRANCH  38  41
ATOM     41  C   UNL     1     -45.086  38.496  28.932  1.00  0.00     0.043 C 
ATOM     42  H   UNL     1     -44.177  38.029  29.328  1.00  0.00     0.054 H 
ATOM     43  H   UNL     1     -45.628  38.924  29.783  1.00  0.00     0.054 H 
BRANCH  41  44
ATOM     44  N   UNL     1     -44.674  39.531  28.019  1.00  0.00    -0.347 N 
ATOM     45  C   UNL     1     -43.684  40.434  28.318  1.00  0.00     0.270 C 
ATOM     46  H   UNL     1     -45.284  39.781  27.247  1.00  0.00     0.164 HD
ATOM     47  O   UNL     1     -42.950  40.363  29.296  1.00  0.00    -0.268 OA
BRANCH  45  48
ATOM     48  C   UNL     1     -43.604  41.552  27.306  1.00  0.00     0.136 A 
ATOM     49  C   UNL     1     -42.387  41.855  26.851  1.00  0.00     0.035 A 
ATOM     50  N   UNL     1     -44.765  42.189  26.928  1.00  0.00    -0.225 NA
ATOM     51  C   UNL     1     -42.261  42.944  25.874  1.00  0.00     0.258 A 
ATOM     52  H   UNL     1     -41.481  41.349  27.158  1.00  0.00     0.071 H 
ATOM     53  C   UNL     1     -44.648  43.155  26.071  1.00  0.00     0.140 A 
ATOM     54  O   UNL     1     -41.143  43.225  25.443  1.00  0.00    -0.269 OA
ATOM     55  N   UNL     1     -43.443  43.573  25.515  1.00  0.00    -0.268 N 
ATOM     56  C   UNL     1     -45.878  43.878  25.637  1.00  0.00    -0.019 A 
ATOM     57  C   UNL     1     -43.403  44.618  24.598  1.00  0.00     0.014 A 
ATOM     58  C   UNL     1     -45.788  44.878  24.751  1.00  0.00    -0.057 A 
ATOM     59  H   UNL     1     -46.820  43.562  26.065  1.00  0.00     0.066 H 
ATOM     60  C   UNL     1     -44.511  45.263  24.213  1.00  0.00    -0.045 A 
ATOM     61  H   UNL     1     -42.427  44.892  24.204  1.00  0.00     0.082 H 
ATOM     62  H   UNL     1     -46.672  45.416  24.424  1.00  0.00     0.062 H 
ATOM     63  H   UNL     1     -44.468  46.077  23.496  1.00  0.00     0.064 H 
ENDBRANCH  45  48
ENDBRANCH  41  44
ENDBRANCH  38  41
ENDBRANCH   1  27
TORSDOF 10
ENDMDL
MODEL 7
REMARK VINA RESULT:      -9.0      2.618      3.932
REMARK SMILES CC(C)(C)OC1CN(Cc2cc3ccc(CNC(=O)c4cc(=O)n5ccccc5n4)cc3[nH]2)C1
REMARK SMILES IDX 9 1 8 4 6 5 7 6 34 7 5 13 2 14 1 15 3 19 4 23 10 27 11 28
REMARK SMILES IDX 33 29 12 30 32 32 13 34 31 35 14 36 15 38 16 41 17 44 18 45
REMARK SMILES IDX 19 47 20 48 21 49 30 50 22 51 29 53 23 54 24 55 28 56 25 57
REMARK SMILES IDX 27 58 26 60
REMARK H PARENT 9 2 9 3 6 8 7 9 7 10 34 11 34 12 1 16 1 17 1 18 3 20 3 21 3 22
REMARK H PARENT 4 24 4 25 4 26 11 31 33 33 13 37 31 39 14 40 16 42 16 43 17 46
REMARK H PARENT 21 52 28 59 25 61 27 62 26 63
REMARK Flexibility Score: inf
ROOT
ATOM      1  C   UNL     1     -48.793  29.658  25.449  1.00  0.00     0.039 C 
ATOM      2  H   UNL     1     -49.788  29.583  25.908  1.00  0.00     0.050 H 
ATOM      3  H   UNL     1     -48.168  28.954  26.014  1.00  0.00     0.050 H 
ENDROOT
BRANCH   1   4
ATOM      4  N   UNL     1     -48.895  29.163  24.077  1.00  0.00    -0.292 NA
ATOM      5  C   UNL     1     -49.750  29.480  22.183  1.00  0.00     0.084 C 
ATOM      6  C   UNL     1     -48.648  30.176  23.031  1.00  0.00     0.026 C 
ATOM      7  C   UNL     1     -50.269  28.988  23.565  1.00  0.00     0.026 C 
ATOM      8  H   UNL     1     -49.373  28.649  21.574  1.00  0.00     0.063 H 
ATOM      9  H   UNL     1     -48.883  31.218  23.267  1.00  0.00     0.046 H 
ATOM     10  H   UNL     1     -47.641  30.138  22.602  1.00  0.00     0.046 H 
ATOM     11  H   UNL     1     -50.626  27.954  23.581  1.00  0.00     0.046 H 
ATOM     12  H   UNL     1     -51.052  29.630  23.980  1.00  0.00     0.046 H 
BRANCH   5  13
ATOM     13  O   UNL     1     -50.660  30.334  21.446  1.00  0.00    -0.370 OA
BRANCH  13  14
ATOM     14  C   UNL     1     -50.621  30.346  20.013  1.00  0.00     0.060 C 
BRANCH  14  15
ATOM     15  C   UNL     1     -50.594  28.910  19.482  1.00  0.00    -0.036 C 
ATOM     16  H   UNL     1     -49.802  28.321  19.957  1.00  0.00     0.026 H 
ATOM     17  H   UNL     1     -50.435  28.898  18.398  1.00  0.00     0.026 H 
ATOM     18  H   UNL     1     -51.544  28.396  19.664  1.00  0.00     0.026 H 
ENDBRANCH  14  15
BRANCH  14  19
ATOM     19  C   UNL     1     -49.437  31.155  19.476  1.00  0.00    -0.036 C 
ATOM     20  H   UNL     1     -48.629  30.500  19.132  1.00  0.00     0.026 H 
ATOM     21  H   UNL     1     -49.021  31.814  20.245  1.00  0.00     0.026 H 
ATOM     22  H   UNL     1     -49.746  31.792  18.640  1.00  0.00     0.026 H 
ENDBRANCH  14  19
BRANCH  14  23
ATOM     23  C   UNL     1     -51.927  31.020  19.574  1.00  0.00    -0.036 C 
ATOM     24  H   UNL     1     -52.706  30.273  19.384  1.00  0.00     0.026 H 
ATOM     25  H   UNL     1     -51.788  31.565  18.633  1.00  0.00     0.026 H 
ATOM     26  H   UNL     1     -52.297  31.723  20.328  1.00  0.00     0.026 H 
ENDBRANCH  14  23
ENDBRANCH  13  14
ENDBRANCH   5  13
ENDBRANCH   1   4
BRANCH   1  27
ATOM     27  C   UNL     1     -48.264  31.037  25.676  1.00  0.00     0.030 A 
ATOM     28  C   UNL     1     -46.991  31.557  25.529  1.00  0.00    -0.032 A 
ATOM     29  N   UNL     1     -49.051  32.048  26.177  1.00  0.00    -0.357 N 
ATOM     30  C   UNL     1     -47.021  32.926  25.911  1.00  0.00    -0.000 A 
ATOM     31  H   UNL     1     -46.128  31.011  25.172  1.00  0.00     0.065 H 
ATOM     32  C   UNL     1     -48.324  33.208  26.313  1.00  0.00     0.046 A 
ATOM     33  H   UNL     1     -50.035  31.966  26.396  1.00  0.00     0.166 HD
ATOM     34  C   UNL     1     -46.062  33.955  25.953  1.00  0.00    -0.052 A 
ATOM     35  C   UNL     1     -48.722  34.475  26.757  1.00  0.00    -0.033 A 
ATOM     36  C   UNL     1     -46.442  35.231  26.390  1.00  0.00    -0.057 A 
ATOM     37  H   UNL     1     -45.039  33.764  25.643  1.00  0.00     0.063 H 
ATOM     38  C   UNL     1     -47.756  35.495  26.797  1.00  0.00    -0.027 A 
ATOM     39  H   UNL     1     -49.750  34.669  27.055  1.00  0.00     0.065 H 
ATOM     40  H   UNL     1     -45.694  36.019  26.409  1.00  0.00     0.063 H 
BRANCH  38  41
ATOM     41  C   UNL     1     -48.157  36.882  27.236  1.00  0.00     0.043 C 
ATOM     42  H   UNL     1     -48.652  36.847  28.213  1.00  0.00     0.054 H 
ATOM     43  H   UNL     1     -48.871  37.312  26.524  1.00  0.00     0.054 H 
BRANCH  41  44
ATOM     44  N   UNL     1     -47.000  37.729  27.371  1.00  0.00    -0.347 N 
ATOM     45  C   UNL     1     -47.073  39.014  27.850  1.00  0.00     0.270 C 
ATOM     46  H   UNL     1     -46.151  37.491  26.868  1.00  0.00     0.164 HD
ATOM     47  O   UNL     1     -48.072  39.512  28.355  1.00  0.00    -0.268 OA
BRANCH  45  48
ATOM     48  C   UNL     1     -45.776  39.766  27.671  1.00  0.00     0.136 A 
ATOM     49  C   UNL     1     -45.620  40.414  26.515  1.00  0.00     0.035 A 
ATOM     50  N   UNL     1     -44.844  39.732  28.685  1.00  0.00    -0.225 NA
ATOM     51  C   UNL     1     -44.369  41.149  26.293  1.00  0.00     0.258 A 
ATOM     52  H   UNL     1     -46.358  40.430  25.724  1.00  0.00     0.071 H 
ATOM     53  C   UNL     1     -43.737  40.377  28.481  1.00  0.00     0.140 A 
ATOM     54  O   UNL     1     -44.219  41.755  25.232  1.00  0.00    -0.269 OA
ATOM     55  N   UNL     1     -43.444  41.093  27.325  1.00  0.00    -0.268 N 
ATOM     56  C   UNL     1     -42.696  40.363  29.548  1.00  0.00    -0.019 A 
ATOM     57  C   UNL     1     -42.233  41.762  27.186  1.00  0.00     0.014 A 
ATOM     58  C   UNL     1     -41.545  41.022  29.368  1.00  0.00    -0.057 A 
ATOM     59  H   UNL     1     -42.914  39.807  30.451  1.00  0.00     0.066 H 
ATOM     60  C   UNL     1     -41.302  41.745  28.149  1.00  0.00    -0.045 A 
ATOM     61  H   UNL     1     -42.070  42.302  26.256  1.00  0.00     0.082 H 
ATOM     62  H   UNL     1     -40.775  41.023  30.132  1.00  0.00     0.062 H 
ATOM     63  H   UNL     1     -40.359  42.271  28.029  1.00  0.00     0.064 H 
ENDBRANCH  45  48
ENDBRANCH  41  44
ENDBRANCH  38  41
ENDBRANCH   1  27
TORSDOF 10
ENDMDL
