MODEL 1
REMARK VINA RESULT:      -9.9      0.000      0.000
REMARK SMILES CN(CCO)c1ccc2ccc(OC[C@H]3O[C@@H](n4cc(-c5ccn(C)n5)c5c(N)ncnc54)[C@@H](F)[C@@H]3O)cc2n1
REMARK SMILES IDX 13 1 12 2 6 3 7 4 40 5 8 6 39 8 9 9 38 11 10 12 11 14 2 17
REMARK SMILES IDX 1 18 3 22 4 25 5 28 14 30 15 33 16 34 36 35 17 37 34 38
REMARK SMILES IDX 35 41 37 43 18 45 19 46 33 47 20 48 27 50 32 51 28 52 31 53
REMARK SMILES IDX 30 54 21 56 22 57 26 58 23 59 24 61 25 63 29 67
REMARK H PARENT 7 7 8 10 38 13 10 15 11 16 1 19 1 20 1 21 3 23 3 24 4 26 4 27
REMARK H PARENT 5 29 14 31 14 32 15 36 36 39 17 40 34 42 37 44 19 49 31 55
REMARK H PARENT 22 60 23 62 25 64 25 65 25 66 29 68 29 69
REMARK Flexibility Score: inf
ROOT
ATOM      1  O   UNL     1     -47.656  34.822  26.397  1.00  0.00    -0.491 OA
ENDROOT
BRANCH   1   2
ATOM      2  C   UNL     1     -47.530  33.615  25.769  1.00  0.00     0.121 A 
ATOM      3  C   UNL     1     -48.867  29.176  24.643  1.00  0.00     0.129 A 
ATOM      4  C   UNL     1     -47.760  29.018  23.811  1.00  0.00    -0.019 A 
ATOM      5  N   UNL     1     -49.055  30.330  25.323  1.00  0.00    -0.231 NA
ATOM      6  C   UNL     1     -46.851  30.060  23.654  1.00  0.00    -0.049 A 
ATOM      7  H   UNL     1     -47.586  28.077  23.299  1.00  0.00     0.066 H 
ATOM      8  C   UNL     1     -48.182  31.345  25.179  1.00  0.00     0.076 A 
ATOM      9  C   UNL     1     -47.055  31.256  24.344  1.00  0.00     0.001 A 
ATOM     10  H   UNL     1     -45.993  29.925  23.004  1.00  0.00     0.063 H 
ATOM     11  C   UNL     1     -48.397  32.526  25.879  1.00  0.00     0.007 A 
ATOM     12  C   UNL     1     -46.175  32.342  24.223  1.00  0.00    -0.049 A 
ATOM     13  H   UNL     1     -49.278  32.560  26.512  1.00  0.00     0.069 H 
ATOM     14  C   UNL     1     -46.417  33.515  24.934  1.00  0.00    -0.019 A 
ATOM     15  H   UNL     1     -45.301  32.279  23.580  1.00  0.00     0.063 H 
ATOM     16  H   UNL     1     -45.730  34.353  24.839  1.00  0.00     0.066 H 
BRANCH   3  17
ATOM     17  N   UNL     1     -49.773  28.120  24.818  1.00  0.00    -0.357 N 
BRANCH  17  18
ATOM     18  C   UNL     1     -50.011  27.336  23.609  1.00  0.00     0.008 C 
ATOM     19  H   UNL     1     -51.002  26.870  23.654  1.00  0.00     0.046 H 
ATOM     20  H   UNL     1     -50.004  27.969  22.715  1.00  0.00     0.046 H 
ATOM     21  H   UNL     1     -49.271  26.536  23.493  1.00  0.00     0.046 H 
ENDBRANCH  17  18
BRANCH  17  22
ATOM     22  C   UNL     1     -49.608  27.336  26.059  1.00  0.00     0.042 C 
ATOM     23  H   UNL     1     -48.556  27.377  26.370  1.00  0.00     0.052 H 
ATOM     24  H   UNL     1     -50.193  27.739  26.893  1.00  0.00     0.052 H 
BRANCH  22  25
ATOM     25  C   UNL     1     -49.989  25.867  25.822  1.00  0.00     0.061 C 
ATOM     26  H   UNL     1     -50.145  25.665  24.757  1.00  0.00     0.058 H 
ATOM     27  H   UNL     1     -49.193  25.214  26.191  1.00  0.00     0.058 H 
BRANCH  25  28
ATOM     28  O   UNL     1     -51.180  25.526  26.533  1.00  0.00    -0.395 OA
ATOM     29  H   UNL     1     -50.955  25.541  27.479  1.00  0.00     0.210 HD
ENDBRANCH  25  28
ENDBRANCH  22  25
ENDBRANCH  17  22
ENDBRANCH   3  17
ENDBRANCH   1   2
BRANCH   1  30
ATOM     30  C   UNL     1     -46.496  35.647  26.535  1.00  0.00     0.117 C 
ATOM     31  H   UNL     1     -46.648  36.511  25.875  1.00  0.00     0.073 H 
ATOM     32  H   UNL     1     -45.587  35.172  26.146  1.00  0.00     0.073 H 
BRANCH  30  33
ATOM     33  C   UNL     1     -46.324  36.139  27.972  1.00  0.00     0.123 C 
ATOM     34  O   UNL     1     -45.070  36.821  28.126  1.00  0.00    -0.345 OA
ATOM     35  C   UNL     1     -47.427  37.101  28.404  1.00  0.00     0.119 C 
ATOM     36  H   UNL     1     -46.313  35.276  28.650  1.00  0.00     0.067 H 
ATOM     37  C   UNL     1     -45.273  37.894  29.074  1.00  0.00     0.169 C 
ATOM     38  C   UNL     1     -46.740  37.899  29.492  1.00  0.00     0.173 C 
ATOM     39  H   UNL     1     -47.767  37.758  27.600  1.00  0.00     0.066 H 
ATOM     40  H   UNL     1     -44.649  37.663  29.944  1.00  0.00     0.088 H 
ATOM     41  F   UNL     1     -47.258  39.147  29.583  1.00  0.00    -0.239 F 
ATOM     42  H   UNL     1     -46.867  37.417  30.467  1.00  0.00     0.074 H 
BRANCH  35  43
ATOM     43  O   UNL     1     -48.566  36.402  28.907  1.00  0.00    -0.387 OA
ATOM     44  H   UNL     1     -48.274  35.933  29.714  1.00  0.00     0.211 HD
ENDBRANCH  35  43
BRANCH  37  45
ATOM     45  N   UNL     1     -44.767  39.134  28.506  1.00  0.00    -0.302 N 
ATOM     46  C   UNL     1     -45.349  39.783  27.444  1.00  0.00     0.019 A 
ATOM     47  C   UNL     1     -43.669  39.846  28.926  1.00  0.00     0.148 A 
ATOM     48  C   UNL     1     -44.597  40.907  27.164  1.00  0.00     0.033 A 
ATOM     49  H   UNL     1     -46.236  39.398  26.957  1.00  0.00     0.083 H 
ATOM     50  C   UNL     1     -43.547  40.982  28.127  1.00  0.00     0.071 A 
ATOM     51  N   UNL     1     -42.860  39.502  29.944  1.00  0.00    -0.218 NA
ATOM     52  C   UNL     1     -42.504  41.864  28.456  1.00  0.00     0.137 A 
ATOM     53  C   UNL     1     -41.884  40.402  30.135  1.00  0.00     0.120 A 
ATOM     54  N   UNL     1     -41.672  41.548  29.468  1.00  0.00    -0.219 NA
ATOM     55  H   UNL     1     -41.183  40.182  30.934  1.00  0.00     0.106 H 
BRANCH  48  56
ATOM     56  C   UNL     1     -44.860  41.839  26.071  1.00  0.00     0.095 A 
ATOM     57  C   UNL     1     -46.051  42.575  25.894  1.00  0.00    -0.016 A 
ATOM     58  N   UNL     1     -43.944  42.140  25.143  1.00  0.00    -0.173 NA
ATOM     59  C   UNL     1     -45.831  43.337  24.770  1.00  0.00     0.025 A 
ATOM     60  H   UNL     1     -46.944  42.559  26.504  1.00  0.00     0.066 H 
ATOM     61  N   UNL     1     -44.564  43.044  24.363  1.00  0.00    -0.275 N 
ATOM     62  H   UNL     1     -46.453  44.052  24.250  1.00  0.00     0.084 H 
BRANCH  61  63
ATOM     63  C   UNL     1     -43.864  43.600  23.230  1.00  0.00     0.030 C 
ATOM     64  H   UNL     1     -44.422  43.352  22.324  1.00  0.00     0.048 H 
ATOM     65  H   UNL     1     -42.862  43.164  23.196  1.00  0.00     0.048 H 
ATOM     66  H   UNL     1     -43.797  44.685  23.341  1.00  0.00     0.048 H 
ENDBRANCH  61  63
ENDBRANCH  48  56
BRANCH  52  67
ATOM     67  N   UNL     1     -42.275  43.088  27.839  1.00  0.00    -0.383 N 
ATOM     68  H   UNL     1     -41.439  43.100  27.267  1.00  0.00     0.158 HD
ATOM     69  H   UNL     1     -43.122  43.394  27.372  1.00  0.00     0.158 HD
ENDBRANCH  52  67
ENDBRANCH  37  45
ENDBRANCH  30  33
ENDBRANCH   1  30
TORSDOF 13
ENDMDL
MODEL 2
REMARK VINA RESULT:      -8.7      2.328      2.933
REMARK SMILES CN(CCO)c1ccc2ccc(OC[C@H]3O[C@@H](n4cc(-c5ccn(C)n5)c5c(N)ncnc54)[C@@H](F)[C@@H]3O)cc2n1
REMARK SMILES IDX 13 1 12 2 6 3 7 4 40 5 8 6 39 8 9 9 38 11 10 12 11 14 2 17
REMARK SMILES IDX 1 18 3 22 4 25 5 28 14 30 15 33 16 34 36 35 17 37 34 38
REMARK SMILES IDX 35 41 37 43 18 45 19 46 33 47 20 48 27 50 32 51 28 52 31 53
REMARK SMILES IDX 30 54 21 56 22 57 26 58 23 59 24 61 25 63 29 67
REMARK H PARENT 7 7 8 10 38 13 10 15 11 16 1 19 1 20 1 21 3 23 3 24 4 26 4 27
REMARK H PARENT 5 29 14 31 14 32 15 36 36 39 17 40 34 42 37 44 19 49 31 55
REMARK H PARENT 22 60 23 62 25 64 25 65 25 66 29 68 29 69
REMARK Flexibility Score: inf
ROOT
ATOM      1  O   UNL     1     -46.403  35.643  26.589  1.00  0.00    -0.491 OA
ENDROOT
BRANCH   1   2
ATOM      2  C   UNL     1     -47.097  34.580  26.082  1.00  0.00     0.121 A 
ATOM      3  C   UNL     1     -47.726  30.785  23.262  1.00  0.00     0.129 A 
ATOM      4  C   UNL     1     -48.990  30.553  23.799  1.00  0.00    -0.019 A 
ATOM      5  N   UNL     1     -46.981  31.831  23.687  1.00  0.00    -0.231 NA
ATOM      6  C   UNL     1     -49.486  31.384  24.799  1.00  0.00    -0.049 A 
ATOM      7  H   UNL     1     -49.606  29.739  23.429  1.00  0.00     0.066 H 
ATOM      8  C   UNL     1     -47.451  32.642  24.652  1.00  0.00     0.076 A 
ATOM      9  C   UNL     1     -48.710  32.453  25.247  1.00  0.00     0.001 A 
ATOM     10  H   UNL     1     -50.472  31.193  25.210  1.00  0.00     0.063 H 
ATOM     11  C   UNL     1     -46.667  33.706  25.082  1.00  0.00     0.007 A 
ATOM     12  C   UNL     1     -49.155  33.323  26.254  1.00  0.00    -0.049 A 
ATOM     13  H   UNL     1     -45.700  33.819  24.602  1.00  0.00     0.069 H 
ATOM     14  C   UNL     1     -48.347  34.380  26.668  1.00  0.00    -0.019 A 
ATOM     15  H   UNL     1     -50.129  33.183  26.717  1.00  0.00     0.063 H 
ATOM     16  H   UNL     1     -48.699  35.053  27.446  1.00  0.00     0.066 H 
BRANCH   3  17
ATOM     17  N   UNL     1     -47.232  29.959  22.240  1.00  0.00    -0.357 N 
BRANCH  17  18
ATOM     18  C   UNL     1     -47.700  28.578  22.315  1.00  0.00     0.008 C 
ATOM     19  H   UNL     1     -48.405  28.467  23.147  1.00  0.00     0.046 H 
ATOM     20  H   UNL     1     -48.242  28.290  21.406  1.00  0.00     0.046 H 
ATOM     21  H   UNL     1     -46.873  27.878  22.481  1.00  0.00     0.046 H 
ENDBRANCH  17  18
BRANCH  17  22
ATOM     22  C   UNL     1     -47.226  30.553  20.887  1.00  0.00     0.042 C 
ATOM     23  H   UNL     1     -47.418  29.764  20.149  1.00  0.00     0.052 H 
ATOM     24  H   UNL     1     -48.014  31.302  20.752  1.00  0.00     0.052 H 
BRANCH  22  25
ATOM     25  C   UNL     1     -45.858  31.182  20.584  1.00  0.00     0.061 C 
ATOM     26  H   UNL     1     -45.044  30.588  21.012  1.00  0.00     0.058 H 
ATOM     27  H   UNL     1     -45.713  31.248  19.502  1.00  0.00     0.058 H 
BRANCH  25  28
ATOM     28  O   UNL     1     -45.778  32.510  21.103  1.00  0.00    -0.395 OA
ATOM     29  H   UNL     1     -45.694  32.430  22.068  1.00  0.00     0.210 HD
ENDBRANCH  25  28
ENDBRANCH  22  25
ENDBRANCH  17  22
ENDBRANCH   3  17
ENDBRANCH   1   2
BRANCH   1  30
ATOM     30  C   UNL     1     -45.524  35.423  27.695  1.00  0.00     0.117 C 
ATOM     31  H   UNL     1     -44.511  35.647  27.337  1.00  0.00     0.073 H 
ATOM     32  H   UNL     1     -45.474  34.370  27.996  1.00  0.00     0.073 H 
BRANCH  30  33
ATOM     33  C   UNL     1     -45.856  36.346  28.868  1.00  0.00     0.123 C 
ATOM     34  O   UNL     1     -44.747  37.210  29.160  1.00  0.00    -0.345 OA
ATOM     35  C   UNL     1     -47.071  37.230  28.599  1.00  0.00     0.119 C 
ATOM     36  H   UNL     1     -46.044  35.739  29.763  1.00  0.00     0.067 H 
ATOM     37  C   UNL     1     -45.289  38.480  29.589  1.00  0.00     0.169 C 
ATOM     38  C   UNL     1     -46.811  38.407  29.514  1.00  0.00     0.173 C 
ATOM     39  H   UNL     1     -47.145  37.559  27.559  1.00  0.00     0.066 H 
ATOM     40  H   UNL     1     -44.983  38.613  30.633  1.00  0.00     0.088 H 
ATOM     41  F   UNL     1     -47.370  39.540  29.025  1.00  0.00    -0.239 F 
ATOM     42  H   UNL     1     -47.240  38.230  30.507  1.00  0.00     0.074 H 
BRANCH  35  43
ATOM     43  O   UNL     1     -48.289  36.564  28.934  1.00  0.00    -0.387 OA
ATOM     44  H   UNL     1     -48.040  35.720  29.358  1.00  0.00     0.211 HD
ENDBRANCH  35  43
BRANCH  37  45
ATOM     45  N   UNL     1     -44.664  39.549  28.825  1.00  0.00    -0.302 N 
ATOM     46  C   UNL     1     -45.226  40.123  27.711  1.00  0.00     0.019 A 
ATOM     47  C   UNL     1     -43.454  40.149  29.082  1.00  0.00     0.148 A 
ATOM     48  C   UNL     1     -44.353  41.081  27.235  1.00  0.00     0.033 A 
ATOM     49  H   UNL     1     -46.187  39.804  27.328  1.00  0.00     0.083 H 
ATOM     50  C   UNL     1     -43.239  41.137  28.123  1.00  0.00     0.071 A 
ATOM     51  N   UNL     1     -42.630  39.836  30.098  1.00  0.00    -0.218 NA
ATOM     52  C   UNL     1     -42.068  41.900  28.271  1.00  0.00     0.137 A 
ATOM     53  C   UNL     1     -41.533  40.607  30.110  1.00  0.00     0.120 A 
ATOM     54  N   UNL     1     -41.217  41.610  29.275  1.00  0.00    -0.219 NA
ATOM     55  H   UNL     1     -40.814  40.401  30.896  1.00  0.00     0.106 H 
BRANCH  48  56
ATOM     56  C   UNL     1     -44.564  41.884  26.034  1.00  0.00     0.095 A 
ATOM     57  C   UNL     1     -43.911  41.691  24.798  1.00  0.00    -0.016 A 
ATOM     58  N   UNL     1     -45.471  42.867  25.971  1.00  0.00    -0.173 NA
ATOM     59  C   UNL     1     -44.448  42.643  23.962  1.00  0.00     0.025 A 
ATOM     60  H   UNL     1     -43.158  40.957  24.547  1.00  0.00     0.066 H 
ATOM     61  N   UNL     1     -45.372  43.314  24.707  1.00  0.00    -0.275 N 
ATOM     62  H   UNL     1     -44.260  42.881  22.924  1.00  0.00     0.084 H 
BRANCH  61  63
ATOM     63  C   UNL     1     -46.216  44.400  24.272  1.00  0.00     0.030 C 
ATOM     64  H   UNL     1     -46.720  44.818  25.147  1.00  0.00     0.048 H 
ATOM     65  H   UNL     1     -46.946  44.006  23.560  1.00  0.00     0.048 H 
ATOM     66  H   UNL     1     -45.603  45.168  23.792  1.00  0.00     0.048 H 
ENDBRANCH  61  63
ENDBRANCH  48  56
BRANCH  52  67
ATOM     67  N   UNL     1     -41.722  42.985  27.473  1.00  0.00    -0.383 N 
ATOM     68  H   UNL     1     -41.894  43.880  27.916  1.00  0.00     0.158 HD
ATOM     69  H   UNL     1     -40.782  42.855  27.115  1.00  0.00     0.158 HD
ENDBRANCH  52  67
ENDBRANCH  37  45
ENDBRANCH  30  33
ENDBRANCH   1  30
TORSDOF 13
ENDMDL
MODEL 3
REMARK VINA RESULT:      -8.7      1.863      2.727
REMARK SMILES CN(CCO)c1ccc2ccc(OC[C@H]3O[C@@H](n4cc(-c5ccn(C)n5)c5c(N)ncnc54)[C@@H](F)[C@@H]3O)cc2n1
REMARK SMILES IDX 13 1 12 2 6 3 7 4 40 5 8 6 39 8 9 9 38 11 10 12 11 14 2 17
REMARK SMILES IDX 1 18 3 22 4 25 5 28 14 30 15 33 16 34 36 35 17 37 34 38
REMARK SMILES IDX 35 41 37 43 18 45 19 46 33 47 20 48 27 50 32 51 28 52 31 53
REMARK SMILES IDX 30 54 21 56 22 57 26 58 23 59 24 61 25 63 29 67
REMARK H PARENT 7 7 8 10 38 13 10 15 11 16 1 19 1 20 1 21 3 23 3 24 4 26 4 27
REMARK H PARENT 5 29 14 31 14 32 15 36 36 39 17 40 34 42 37 44 19 49 31 55
REMARK H PARENT 22 60 23 62 25 64 25 65 25 66 29 68 29 69
REMARK Flexibility Score: inf
ROOT
ATOM      1  O   UNL     1     -47.907  35.276  26.648  1.00  0.00    -0.491 OA
ENDROOT
BRANCH   1   2
ATOM      2  C   UNL     1     -47.724  34.081  26.011  1.00  0.00     0.121 A 
ATOM      3  C   UNL     1     -48.934  29.653  24.712  1.00  0.00     0.129 A 
ATOM      4  C   UNL     1     -47.765  29.517  23.965  1.00  0.00    -0.019 A 
ATOM      5  N   UNL     1     -49.182  30.794  25.395  1.00  0.00    -0.231 NA
ATOM      6  C   UNL     1     -46.856  30.569  23.895  1.00  0.00    -0.049 A 
ATOM      7  H   UNL     1     -47.545  28.587  23.451  1.00  0.00     0.066 H 
ATOM      8  C   UNL     1     -48.310  31.817  25.335  1.00  0.00     0.076 A 
ATOM      9  C   UNL     1     -47.122  31.750  24.587  1.00  0.00     0.001 A 
ATOM     10  H   UNL     1     -45.950  30.451  23.310  1.00  0.00     0.063 H 
ATOM     11  C   UNL     1     -48.588  32.984  26.036  1.00  0.00     0.007 A 
ATOM     12  C   UNL     1     -46.244  32.845  24.552  1.00  0.00    -0.049 A 
ATOM     13  H   UNL     1     -49.515  33.000  26.601  1.00  0.00     0.069 H 
ATOM     14  C   UNL     1     -46.550  34.004  25.262  1.00  0.00    -0.019 A 
ATOM     15  H   UNL     1     -45.323  32.799  23.976  1.00  0.00     0.063 H 
ATOM     16  H   UNL     1     -45.865  34.848  25.234  1.00  0.00     0.066 H 
BRANCH   3  17
ATOM     17  N   UNL     1     -49.842  28.587  24.799  1.00  0.00    -0.357 N 
BRANCH  17  18
ATOM     18  C   UNL     1     -50.591  28.343  23.569  1.00  0.00     0.008 C 
ATOM     19  H   UNL     1     -50.820  27.276  23.477  1.00  0.00     0.046 H 
ATOM     20  H   UNL     1     -51.552  28.870  23.577  1.00  0.00     0.046 H 
ATOM     21  H   UNL     1     -50.021  28.641  22.682  1.00  0.00     0.046 H 
ENDBRANCH  17  18
BRANCH  17  22
ATOM     22  C   UNL     1     -49.343  27.379  25.487  1.00  0.00     0.042 C 
ATOM     23  H   UNL     1     -50.198  26.755  25.778  1.00  0.00     0.052 H 
ATOM     24  H   UNL     1     -48.713  26.756  24.843  1.00  0.00     0.052 H 
BRANCH  22  25
ATOM     25  C   UNL     1     -48.567  27.765  26.755  1.00  0.00     0.061 C 
ATOM     26  H   UNL     1     -48.476  28.852  26.850  1.00  0.00     0.058 H 
ATOM     27  H   UNL     1     -49.083  27.377  27.637  1.00  0.00     0.058 H 
BRANCH  25  28
ATOM     28  O   UNL     1     -47.257  27.194  26.747  1.00  0.00    -0.395 OA
ATOM     29  H   UNL     1     -47.014  27.037  27.676  1.00  0.00     0.210 HD
ENDBRANCH  25  28
ENDBRANCH  22  25
ENDBRANCH  17  22
ENDBRANCH   3  17
ENDBRANCH   1   2
BRANCH   1  30
ATOM     30  C   UNL     1     -47.739  35.331  28.067  1.00  0.00     0.117 C 
ATOM     31  H   UNL     1     -47.917  34.314  28.440  1.00  0.00     0.073 H 
ATOM     32  H   UNL     1     -48.507  35.936  28.563  1.00  0.00     0.073 H 
BRANCH  30  33
ATOM     33  C   UNL     1     -46.323  35.763  28.448  1.00  0.00     0.123 C 
ATOM     34  O   UNL     1     -45.758  36.601  27.428  1.00  0.00    -0.345 OA
ATOM     35  C   UNL     1     -46.276  36.541  29.761  1.00  0.00     0.119 C 
ATOM     36  H   UNL     1     -45.685  34.874  28.534  1.00  0.00     0.067 H 
ATOM     37  C   UNL     1     -44.925  37.583  28.085  1.00  0.00     0.169 C 
ATOM     38  C   UNL     1     -45.018  37.365  29.592  1.00  0.00     0.173 C 
ATOM     39  H   UNL     1     -47.144  37.187  29.911  1.00  0.00     0.066 H 
ATOM     40  H   UNL     1     -43.898  37.392  27.754  1.00  0.00     0.088 H 
ATOM     41  F   UNL     1     -45.096  38.524  30.289  1.00  0.00    -0.239 F 
ATOM     42  H   UNL     1     -44.142  36.818  29.959  1.00  0.00     0.074 H 
BRANCH  35  43
ATOM     43  O   UNL     1     -46.183  35.666  30.886  1.00  0.00    -0.387 OA
ATOM     44  H   UNL     1     -46.216  36.231  31.683  1.00  0.00     0.211 HD
ENDBRANCH  35  43
BRANCH  37  45
ATOM     45  N   UNL     1     -45.286  38.909  27.609  1.00  0.00    -0.302 N 
ATOM     46  C   UNL     1     -44.390  39.793  27.057  1.00  0.00     0.019 A 
ATOM     47  C   UNL     1     -46.537  39.479  27.620  1.00  0.00     0.148 A 
ATOM     48  C   UNL     1     -45.072  40.951  26.738  1.00  0.00     0.033 A 
ATOM     49  H   UNL     1     -43.342  39.548  26.946  1.00  0.00     0.083 H 
ATOM     50  C   UNL     1     -46.448  40.750  27.054  1.00  0.00     0.071 A 
ATOM     51  N   UNL     1     -47.654  38.897  28.091  1.00  0.00    -0.218 NA
ATOM     52  C   UNL     1     -47.655  41.458  26.928  1.00  0.00     0.137 A 
ATOM     53  C   UNL     1     -48.729  39.685  27.948  1.00  0.00     0.120 A 
ATOM     54  N   UNL     1     -48.793  40.906  27.394  1.00  0.00    -0.219 NA
ATOM     55  H   UNL     1     -49.667  39.284  28.320  1.00  0.00     0.106 H 
BRANCH  48  56
ATOM     56  C   UNL     1     -44.463  42.153  26.174  1.00  0.00     0.095 A 
ATOM     57  C   UNL     1     -43.407  42.884  26.758  1.00  0.00    -0.016 A 
ATOM     58  N   UNL     1     -44.818  42.651  24.984  1.00  0.00    -0.173 NA
ATOM     59  C   UNL     1     -43.143  43.897  25.865  1.00  0.00     0.025 A 
ATOM     60  H   UNL     1     -42.902  42.696  27.695  1.00  0.00     0.066 H 
ATOM     61  N   UNL     1     -44.007  43.712  24.827  1.00  0.00    -0.275 N 
ATOM     62  H   UNL     1     -42.422  44.702  25.880  1.00  0.00     0.084 H 
BRANCH  61  63
ATOM     63  C   UNL     1     -44.112  44.513  23.631  1.00  0.00     0.030 C 
ATOM     64  H   UNL     1     -44.869  45.283  23.797  1.00  0.00     0.048 H 
ATOM     65  H   UNL     1     -44.401  43.860  22.803  1.00  0.00     0.048 H 
ATOM     66  H   UNL     1     -43.146  44.979  23.419  1.00  0.00     0.048 H 
ENDBRANCH  61  63
ENDBRANCH  48  56
BRANCH  52  67
ATOM     67  N   UNL     1     -47.787  42.697  26.311  1.00  0.00    -0.383 N 
ATOM     68  H   UNL     1     -47.108  43.379  26.629  1.00  0.00     0.158 HD
ATOM     69  H   UNL     1     -47.832  42.570  25.305  1.00  0.00     0.158 HD
ENDBRANCH  52  67
ENDBRANCH  37  45
ENDBRANCH  30  33
ENDBRANCH   1  30
TORSDOF 13
ENDMDL
MODEL 4
REMARK VINA RESULT:      -8.4      2.787      3.722
REMARK SMILES CN(CCO)c1ccc2ccc(OC[C@H]3O[C@@H](n4cc(-c5ccn(C)n5)c5c(N)ncnc54)[C@@H](F)[C@@H]3O)cc2n1
REMARK SMILES IDX 13 1 12 2 6 3 7 4 40 5 8 6 39 8 9 9 38 11 10 12 11 14 2 17
REMARK SMILES IDX 1 18 3 22 4 25 5 28 14 30 15 33 16 34 36 35 17 37 34 38
REMARK SMILES IDX 35 41 37 43 18 45 19 46 33 47 20 48 27 50 32 51 28 52 31 53
REMARK SMILES IDX 30 54 21 56 22 57 26 58 23 59 24 61 25 63 29 67
REMARK H PARENT 7 7 8 10 38 13 10 15 11 16 1 19 1 20 1 21 3 23 3 24 4 26 4 27
REMARK H PARENT 5 29 14 31 14 32 15 36 36 39 17 40 34 42 37 44 19 49 31 55
REMARK H PARENT 22 60 23 62 25 64 25 65 25 66 29 68 29 69
REMARK Flexibility Score: inf
ROOT
ATOM      1  O   UNL     1     -47.913  34.001  27.122  1.00  0.00    -0.491 OA
ENDROOT
BRANCH   1   2
ATOM      2  C   UNL     1     -47.726  32.985  26.226  1.00  0.00     0.121 A 
ATOM      3  C   UNL     1     -48.638  28.727  24.278  1.00  0.00     0.129 A 
ATOM      4  C   UNL     1     -47.651  28.919  23.314  1.00  0.00    -0.019 A 
ATOM      5  N   UNL     1     -48.871  29.671  25.219  1.00  0.00    -0.231 NA
ATOM      6  C   UNL     1     -46.914  30.100  23.297  1.00  0.00    -0.049 A 
ATOM      7  H   UNL     1     -47.435  28.145  22.584  1.00  0.00     0.066 H 
ATOM      8  C   UNL     1     -48.164  30.815  25.213  1.00  0.00     0.076 A 
ATOM      9  C   UNL     1     -47.166  31.078  24.258  1.00  0.00     0.001 A 
ATOM     10  H   UNL     1     -46.147  30.238  22.541  1.00  0.00     0.063 H 
ATOM     11  C   UNL     1     -48.424  31.776  26.182  1.00  0.00     0.007 A 
ATOM     12  C   UNL     1     -46.457  32.289  24.289  1.00  0.00    -0.049 A 
ATOM     13  H   UNL     1     -49.202  31.540  26.901  1.00  0.00     0.069 H 
ATOM     14  C   UNL     1     -46.742  33.236  25.271  1.00  0.00    -0.019 A 
ATOM     15  H   UNL     1     -45.683  32.498  23.555  1.00  0.00     0.063 H 
ATOM     16  H   UNL     1     -46.187  34.171  25.293  1.00  0.00     0.066 H 
BRANCH   3  17
ATOM     17  N   UNL     1     -49.369  27.530  24.309  1.00  0.00    -0.357 N 
BRANCH  17  18
ATOM     18  C   UNL     1     -50.114  27.257  23.082  1.00  0.00     0.008 C 
ATOM     19  H   UNL     1     -51.174  27.494  23.228  1.00  0.00     0.046 H 
ATOM     20  H   UNL     1     -49.765  27.886  22.255  1.00  0.00     0.046 H 
ATOM     21  H   UNL     1     -50.044  26.203  22.791  1.00  0.00     0.046 H 
ENDBRANCH  17  18
BRANCH  17  22
ATOM     22  C   UNL     1     -48.669  26.369  24.895  1.00  0.00     0.042 C 
ATOM     23  H   UNL     1     -49.086  25.448  24.470  1.00  0.00     0.052 H 
ATOM     24  H   UNL     1     -47.598  26.360  24.660  1.00  0.00     0.052 H 
BRANCH  22  25
ATOM     25  C   UNL     1     -48.865  26.337  26.418  1.00  0.00     0.061 C 
ATOM     26  H   UNL     1     -48.840  25.311  26.800  1.00  0.00     0.058 H 
ATOM     27  H   UNL     1     -48.073  26.913  26.905  1.00  0.00     0.058 H 
BRANCH  25  28
ATOM     28  O   UNL     1     -50.109  26.934  26.787  1.00  0.00    -0.395 OA
ATOM     29  H   UNL     1     -50.647  26.233  27.193  1.00  0.00     0.210 HD
ENDBRANCH  25  28
ENDBRANCH  22  25
ENDBRANCH  17  22
ENDBRANCH   3  17
ENDBRANCH   1   2
BRANCH   1  30
ATOM     30  C   UNL     1     -47.840  35.350  26.653  1.00  0.00     0.117 C 
ATOM     31  H   UNL     1     -48.779  35.834  26.950  1.00  0.00     0.073 H 
ATOM     32  H   UNL     1     -47.838  35.420  25.558  1.00  0.00     0.073 H 
BRANCH  30  33
ATOM     33  C   UNL     1     -46.668  36.101  27.284  1.00  0.00     0.123 C 
ATOM     34  O   UNL     1     -46.390  37.307  26.556  1.00  0.00    -0.345 OA
ATOM     35  C   UNL     1     -46.929  36.490  28.737  1.00  0.00     0.119 C 
ATOM     36  H   UNL     1     -45.769  35.473  27.236  1.00  0.00     0.067 H 
ATOM     37  C   UNL     1     -45.961  38.302  27.513  1.00  0.00     0.169 C 
ATOM     38  C   UNL     1     -46.020  37.689  28.908  1.00  0.00     0.173 C 
ATOM     39  H   UNL     1     -47.969  36.763  28.931  1.00  0.00     0.066 H 
ATOM     40  H   UNL     1     -44.920  38.543  27.267  1.00  0.00     0.088 H 
ATOM     41  F   UNL     1     -46.509  38.543  29.839  1.00  0.00    -0.239 F 
ATOM     42  H   UNL     1     -45.023  37.378  29.238  1.00  0.00     0.074 H 
BRANCH  35  43
ATOM     43  O   UNL     1     -46.580  35.436  29.634  1.00  0.00    -0.387 OA
ATOM     44  H   UNL     1     -45.795  34.993  29.256  1.00  0.00     0.211 HD
ENDBRANCH  35  43
BRANCH  37  45
ATOM     45  N   UNL     1     -46.735  39.518  27.316  1.00  0.00    -0.302 N 
ATOM     46  C   UNL     1     -48.019  39.689  27.775  1.00  0.00     0.019 A 
ATOM     47  C   UNL     1     -46.327  40.661  26.671  1.00  0.00     0.148 A 
ATOM     48  C   UNL     1     -48.445  40.947  27.394  1.00  0.00     0.033 A 
ATOM     49  H   UNL     1     -48.540  38.912  28.318  1.00  0.00     0.083 H 
ATOM     50  C   UNL     1     -47.363  41.592  26.726  1.00  0.00     0.071 A 
ATOM     51  N   UNL     1     -45.125  40.845  26.097  1.00  0.00    -0.218 NA
ATOM     52  C   UNL     1     -47.095  42.852  26.164  1.00  0.00     0.137 A 
ATOM     53  C   UNL     1     -45.004  42.069  25.566  1.00  0.00     0.120 A 
ATOM     54  N   UNL     1     -45.902  43.069  25.576  1.00  0.00    -0.219 NA
ATOM     55  H   UNL     1     -44.062  42.285  25.071  1.00  0.00     0.106 H 
BRANCH  48  56
ATOM     56  C   UNL     1     -49.775  41.493  27.649  1.00  0.00     0.095 A 
ATOM     57  C   UNL     1     -50.993  40.865  27.311  1.00  0.00    -0.016 A 
ATOM     58  N   UNL     1     -49.970  42.643  28.303  1.00  0.00    -0.173 NA
ATOM     59  C   UNL     1     -51.969  41.719  27.772  1.00  0.00     0.025 A 
ATOM     60  H   UNL     1     -51.142  39.919  26.809  1.00  0.00     0.066 H 
ATOM     61  N   UNL     1     -51.309  42.759  28.355  1.00  0.00    -0.275 N 
ATOM     62  H   UNL     1     -53.049  41.664  27.743  1.00  0.00     0.084 H 
BRANCH  61  63
ATOM     63  C   UNL     1     -51.897  43.909  29.000  1.00  0.00     0.030 C 
ATOM     64  H   UNL     1     -51.875  44.746  28.298  1.00  0.00     0.048 H 
ATOM     65  H   UNL     1     -51.310  44.140  29.893  1.00  0.00     0.048 H 
ATOM     66  H   UNL     1     -52.929  43.682  29.278  1.00  0.00     0.048 H 
ENDBRANCH  61  63
ENDBRANCH  48  56
BRANCH  52  67
ATOM     67  N   UNL     1     -47.963  43.937  26.199  1.00  0.00    -0.383 N 
ATOM     68  H   UNL     1     -48.526  44.029  25.362  1.00  0.00     0.158 HD
ATOM     69  H   UNL     1     -48.483  43.926  27.070  1.00  0.00     0.158 HD
ENDBRANCH  52  67
ENDBRANCH  37  45
ENDBRANCH  30  33
ENDBRANCH   1  30
TORSDOF 13
ENDMDL
MODEL 5
REMARK VINA RESULT:      -8.3      3.491      4.794
REMARK SMILES CN(CCO)c1ccc2ccc(OC[C@H]3O[C@@H](n4cc(-c5ccn(C)n5)c5c(N)ncnc54)[C@@H](F)[C@@H]3O)cc2n1
REMARK SMILES IDX 13 1 12 2 6 3 7 4 40 5 8 6 39 8 9 9 38 11 10 12 11 14 2 17
REMARK SMILES IDX 1 18 3 22 4 25 5 28 14 30 15 33 16 34 36 35 17 37 34 38
REMARK SMILES IDX 35 41 37 43 18 45 19 46 33 47 20 48 27 50 32 51 28 52 31 53
REMARK SMILES IDX 30 54 21 56 22 57 26 58 23 59 24 61 25 63 29 67
REMARK H PARENT 7 7 8 10 38 13 10 15 11 16 1 19 1 20 1 21 3 23 3 24 4 26 4 27
REMARK H PARENT 5 29 14 31 14 32 15 36 36 39 17 40 34 42 37 44 19 49 31 55
REMARK H PARENT 22 60 23 62 25 64 25 65 25 66 29 68 29 69
REMARK Flexibility Score: inf
ROOT
ATOM      1  O   UNL     1     -46.319  33.351  24.871  1.00  0.00    -0.491 OA
ENDROOT
BRANCH   1   2
ATOM      2  C   UNL     1     -46.777  32.141  24.433  1.00  0.00     0.121 A 
ATOM      3  C   UNL     1     -49.741  28.403  24.403  1.00  0.00     0.129 A 
ATOM      4  C   UNL     1     -49.038  27.811  23.355  1.00  0.00    -0.019 A 
ATOM      5  N   UNL     1     -49.340  29.588  24.915  1.00  0.00    -0.231 NA
ATOM      6  C   UNL     1     -47.930  28.452  22.810  1.00  0.00    -0.049 A 
ATOM      7  H   UNL     1     -49.334  26.840  22.972  1.00  0.00     0.066 H 
ATOM      8  C   UNL     1     -48.269  30.217  24.396  1.00  0.00     0.076 A 
ATOM      9  C   UNL     1     -47.527  29.683  23.329  1.00  0.00     0.001 A 
ATOM     10  H   UNL     1     -47.390  27.981  21.994  1.00  0.00     0.063 H 
ATOM     11  C   UNL     1     -47.878  31.439  24.930  1.00  0.00     0.007 A 
ATOM     12  C   UNL     1     -46.419  30.377  22.818  1.00  0.00    -0.049 A 
ATOM     13  H   UNL     1     -48.475  31.822  25.751  1.00  0.00     0.069 H 
ATOM     14  C   UNL     1     -46.051  31.602  23.371  1.00  0.00    -0.019 A 
ATOM     15  H   UNL     1     -45.840  29.969  21.994  1.00  0.00     0.063 H 
ATOM     16  H   UNL     1     -45.190  32.134  22.974  1.00  0.00     0.066 H 
BRANCH   3  17
ATOM     17  N   UNL     1     -50.847  27.749  24.967  1.00  0.00    -0.357 N 
BRANCH  17  18
ATOM     18  C   UNL     1     -51.871  27.371  23.997  1.00  0.00     0.008 C 
ATOM     19  H   UNL     1     -52.862  27.415  24.463  1.00  0.00     0.046 H 
ATOM     20  H   UNL     1     -51.893  28.065  23.149  1.00  0.00     0.046 H 
ATOM     21  H   UNL     1     -51.721  26.350  23.626  1.00  0.00     0.046 H 
ENDBRANCH  17  18
BRANCH  17  22
ATOM     22  C   UNL     1     -50.532  26.727  25.986  1.00  0.00     0.042 C 
ATOM     23  H   UNL     1     -49.772  26.044  25.585  1.00  0.00     0.052 H 
ATOM     24  H   UNL     1     -50.107  27.160  26.899  1.00  0.00     0.052 H 
BRANCH  22  25
ATOM     25  C   UNL     1     -51.786  25.912  26.335  1.00  0.00     0.061 C 
ATOM     26  H   UNL     1     -52.550  26.005  25.555  1.00  0.00     0.058 H 
ATOM     27  H   UNL     1     -51.522  24.856  26.444  1.00  0.00     0.058 H 
BRANCH  25  28
ATOM     28  O   UNL     1     -52.346  26.338  27.578  1.00  0.00    -0.395 OA
ATOM     29  H   UNL     1     -53.175  25.845  27.696  1.00  0.00     0.210 HD
ENDBRANCH  25  28
ENDBRANCH  22  25
ENDBRANCH  17  22
ENDBRANCH   3  17
ENDBRANCH   1   2
BRANCH   1  30
ATOM     30  C   UNL     1     -47.102  34.078  25.822  1.00  0.00     0.117 C 
ATOM     31  H   UNL     1     -47.640  33.330  26.419  1.00  0.00     0.073 H 
ATOM     32  H   UNL     1     -47.899  34.668  25.353  1.00  0.00     0.073 H 
BRANCH  30  33
ATOM     33  C   UNL     1     -46.224  34.920  26.747  1.00  0.00     0.123 C 
ATOM     34  O   UNL     1     -46.407  36.319  26.482  1.00  0.00    -0.345 OA
ATOM     35  C   UNL     1     -46.529  34.687  28.225  1.00  0.00     0.119 C 
ATOM     36  H   UNL     1     -45.169  34.685  26.557  1.00  0.00     0.067 H 
ATOM     37  C   UNL     1     -46.294  37.018  27.743  1.00  0.00     0.169 C 
ATOM     38  C   UNL     1     -46.073  35.990  28.848  1.00  0.00     0.173 C 
ATOM     39  H   UNL     1     -47.589  34.514  28.425  1.00  0.00     0.066 H 
ATOM     40  H   UNL     1     -45.410  37.661  27.664  1.00  0.00     0.088 H 
ATOM     41  F   UNL     1     -46.776  36.265  29.973  1.00  0.00    -0.239 F 
ATOM     42  H   UNL     1     -45.014  35.939  29.124  1.00  0.00     0.074 H 
BRANCH  35  43
ATOM     43  O   UNL     1     -45.799  33.575  28.743  1.00  0.00    -0.387 OA
ATOM     44  H   UNL     1     -46.307  33.237  29.506  1.00  0.00     0.211 HD
ENDBRANCH  35  43
BRANCH  37  45
ATOM     45  N   UNL     1     -47.443  37.895  27.907  1.00  0.00    -0.302 N 
ATOM     46  C   UNL     1     -47.349  39.254  28.081  1.00  0.00     0.019 A 
ATOM     47  C   UNL     1     -48.768  37.528  27.907  1.00  0.00     0.148 A 
ATOM     48  C   UNL     1     -48.628  39.758  28.222  1.00  0.00     0.033 A 
ATOM     49  H   UNL     1     -46.393  39.761  28.110  1.00  0.00     0.083 H 
ATOM     50  C   UNL     1     -49.543  38.675  28.072  1.00  0.00     0.071 A 
ATOM     51  N   UNL     1     -49.229  36.273  27.760  1.00  0.00    -0.218 NA
ATOM     52  C   UNL     1     -50.936  38.493  28.034  1.00  0.00     0.137 A 
ATOM     53  C   UNL     1     -50.569  36.226  27.778  1.00  0.00     0.120 A 
ATOM     54  N   UNL     1     -51.432  37.248  27.894  1.00  0.00    -0.219 NA
ATOM     55  H   UNL     1     -51.012  35.240  27.679  1.00  0.00     0.106 H 
BRANCH  48  56
ATOM     56  C   UNL     1     -48.953  41.159  28.475  1.00  0.00     0.095 A 
ATOM     57  C   UNL     1     -48.958  42.183  27.504  1.00  0.00    -0.016 A 
ATOM     58  N   UNL     1     -49.348  41.604  29.673  1.00  0.00    -0.173 NA
ATOM     59  C   UNL     1     -49.356  43.311  28.184  1.00  0.00     0.025 A 
ATOM     60  H   UNL     1     -48.715  42.110  26.453  1.00  0.00     0.066 H 
ATOM     61  N   UNL     1     -49.578  42.913  29.469  1.00  0.00    -0.275 N 
ATOM     62  H   UNL     1     -49.506  44.332  27.862  1.00  0.00     0.084 H 
BRANCH  61  63
ATOM     63  C   UNL     1     -50.025  43.734  30.568  1.00  0.00     0.030 C 
ATOM     64  H   UNL     1     -49.603  44.734  30.445  1.00  0.00     0.048 H 
ATOM     65  H   UNL     1     -49.676  43.282  31.500  1.00  0.00     0.048 H 
ATOM     66  H   UNL     1     -51.116  43.786  30.563  1.00  0.00     0.048 H 
ENDBRANCH  61  63
ENDBRANCH  48  56
BRANCH  52  67
ATOM     67  N   UNL     1     -51.872  39.519  28.089  1.00  0.00    -0.383 N 
ATOM     68  H   UNL     1     -52.777  39.258  27.713  1.00  0.00     0.158 HD
ATOM     69  H   UNL     1     -51.892  39.909  29.025  1.00  0.00     0.158 HD
ENDBRANCH  52  67
ENDBRANCH  37  45
ENDBRANCH  30  33
ENDBRANCH   1  30
TORSDOF 13
ENDMDL
MODEL 6
REMARK VINA RESULT:      -8.2      2.941     12.468
REMARK SMILES CN(CCO)c1ccc2ccc(OC[C@H]3O[C@@H](n4cc(-c5ccn(C)n5)c5c(N)ncnc54)[C@@H](F)[C@@H]3O)cc2n1
REMARK SMILES IDX 13 1 12 2 6 3 7 4 40 5 8 6 39 8 9 9 38 11 10 12 11 14 2 17
REMARK SMILES IDX 1 18 3 22 4 25 5 28 14 30 15 33 16 34 36 35 17 37 34 38
REMARK SMILES IDX 35 41 37 43 18 45 19 46 33 47 20 48 27 50 32 51 28 52 31 53
REMARK SMILES IDX 30 54 21 56 22 57 26 58 23 59 24 61 25 63 29 67
REMARK H PARENT 7 7 8 10 38 13 10 15 11 16 1 19 1 20 1 21 3 23 3 24 4 26 4 27
REMARK H PARENT 5 29 14 31 14 32 15 36 36 39 17 40 34 42 37 44 19 49 31 55
REMARK H PARENT 22 60 23 62 25 64 25 65 25 66 29 68 29 69
REMARK Flexibility Score: inf
ROOT
ATOM      1  O   UNL     1     -47.637  34.781  27.586  1.00  0.00    -0.491 OA
ENDROOT
BRANCH   1   2
ATOM      2  C   UNL     1     -46.823  35.788  28.023  1.00  0.00     0.121 A 
ATOM      3  C   UNL     1     -44.394  39.870  27.587  1.00  0.00     0.129 A 
ATOM      4  C   UNL     1     -43.957  39.790  28.908  1.00  0.00    -0.019 A 
ATOM      5  N   UNL     1     -45.182  38.903  27.065  1.00  0.00    -0.231 NA
ATOM      6  C   UNL     1     -44.351  38.723  29.709  1.00  0.00    -0.049 A 
ATOM      7  H   UNL     1     -43.291  40.545  29.314  1.00  0.00     0.066 H 
ATOM      8  C   UNL     1     -45.568  37.865  27.831  1.00  0.00     0.076 A 
ATOM      9  C   UNL     1     -45.177  37.734  29.174  1.00  0.00     0.001 A 
ATOM     10  H   UNL     1     -44.004  38.672  30.736  1.00  0.00     0.063 H 
ATOM     11  C   UNL     1     -46.386  36.886  27.279  1.00  0.00     0.007 A 
ATOM     12  C   UNL     1     -45.609  36.637  29.934  1.00  0.00    -0.049 A 
ATOM     13  H   UNL     1     -46.670  37.021  26.241  1.00  0.00     0.069 H 
ATOM     14  C   UNL     1     -46.430  35.671  29.356  1.00  0.00    -0.019 A 
ATOM     15  H   UNL     1     -45.308  36.528  30.973  1.00  0.00     0.063 H 
ATOM     16  H   UNL     1     -46.760  34.821  29.949  1.00  0.00     0.066 H 
BRANCH   3  17
ATOM     17  N   UNL     1     -43.982  40.936  26.772  1.00  0.00    -0.357 N 
BRANCH  17  18
ATOM     18  C   UNL     1     -45.024  41.441  25.883  1.00  0.00     0.008 C 
ATOM     19  H   UNL     1     -44.966  42.534  25.822  1.00  0.00     0.046 H 
ATOM     20  H   UNL     1     -44.895  41.064  24.862  1.00  0.00     0.046 H 
ATOM     21  H   UNL     1     -46.026  41.179  26.243  1.00  0.00     0.046 H 
ENDBRANCH  17  18
BRANCH  17  22
ATOM     22  C   UNL     1     -43.161  41.968  27.437  1.00  0.00     0.042 C 
ATOM     23  H   UNL     1     -43.290  41.881  28.524  1.00  0.00     0.052 H 
ATOM     24  H   UNL     1     -42.090  41.845  27.243  1.00  0.00     0.052 H 
BRANCH  22  25
ATOM     25  C   UNL     1     -43.609  43.371  27.004  1.00  0.00     0.061 C 
ATOM     26  H   UNL     1     -44.507  43.327  26.380  1.00  0.00     0.058 H 
ATOM     27  H   UNL     1     -43.824  43.980  27.887  1.00  0.00     0.058 H 
BRANCH  25  28
ATOM     28  O   UNL     1     -42.576  44.036  26.274  1.00  0.00    -0.395 OA
ATOM     29  H   UNL     1     -42.997  44.776  25.804  1.00  0.00     0.210 HD
ENDBRANCH  25  28
ENDBRANCH  22  25
ENDBRANCH  17  22
ENDBRANCH   3  17
ENDBRANCH   1   2
BRANCH   1  30
ATOM     30  C   UNL     1     -47.074  33.750  26.771  1.00  0.00     0.117 C 
ATOM     31  H   UNL     1     -47.048  32.843  27.389  1.00  0.00     0.073 H 
ATOM     32  H   UNL     1     -46.022  33.932  26.520  1.00  0.00     0.073 H 
BRANCH  30  33
ATOM     33  C   UNL     1     -47.928  33.485  25.531  1.00  0.00     0.123 C 
ATOM     34  O   UNL     1     -47.226  32.643  24.604  1.00  0.00    -0.345 OA
ATOM     35  C   UNL     1     -49.253  32.801  25.861  1.00  0.00     0.119 C 
ATOM     36  H   UNL     1     -48.132  34.436  25.022  1.00  0.00     0.067 H 
ATOM     37  C   UNL     1     -48.204  31.793  23.963  1.00  0.00     0.169 C 
ATOM     38  C   UNL     1     -49.574  32.096  24.560  1.00  0.00     0.173 C 
ATOM     39  H   UNL     1     -49.176  32.083  26.680  1.00  0.00     0.066 H 
ATOM     40  H   UNL     1     -48.203  32.062  22.901  1.00  0.00     0.088 H 
ATOM     41  F   UNL     1     -50.313  30.982  24.778  1.00  0.00    -0.239 F 
ATOM     42  H   UNL     1     -50.151  32.749  23.896  1.00  0.00     0.074 H 
BRANCH  35  43
ATOM     43  O   UNL     1     -50.262  33.751  26.206  1.00  0.00    -0.387 OA
ATOM     44  H   UNL     1     -50.694  34.017  25.370  1.00  0.00     0.211 HD
ENDBRANCH  35  43
BRANCH  37  45
ATOM     45  N   UNL     1     -47.762  30.409  24.050  1.00  0.00    -0.302 N 
ATOM     46  C   UNL     1     -48.416  29.442  24.774  1.00  0.00     0.019 A 
ATOM     47  C   UNL     1     -46.664  29.853  23.439  1.00  0.00     0.148 A 
ATOM     48  C   UNL     1     -47.711  28.261  24.646  1.00  0.00     0.033 A 
ATOM     49  H   UNL     1     -49.315  29.659  25.336  1.00  0.00     0.083 H 
ATOM     50  C   UNL     1     -46.615  28.499  23.765  1.00  0.00     0.071 A 
ATOM     51  N   UNL     1     -45.794  30.511  22.651  1.00  0.00    -0.218 NA
ATOM     52  C   UNL     1     -45.582  27.755  23.172  1.00  0.00     0.137 A 
ATOM     53  C   UNL     1     -44.836  29.703  22.177  1.00  0.00     0.120 A 
ATOM     54  N   UNL     1     -44.690  28.383  22.381  1.00  0.00    -0.219 NA
ATOM     55  H   UNL     1     -44.088  30.169  21.543  1.00  0.00     0.106 H 
BRANCH  48  56
ATOM     56  C   UNL     1     -48.055  27.005  25.306  1.00  0.00     0.095 A 
ATOM     57  C   UNL     1     -49.336  26.412  25.317  1.00  0.00    -0.016 A 
ATOM     58  N   UNL     1     -47.147  26.243  25.928  1.00  0.00    -0.173 NA
ATOM     59  C   UNL     1     -49.176  25.238  26.017  1.00  0.00     0.025 A 
ATOM     60  H   UNL     1     -50.248  26.784  24.871  1.00  0.00     0.066 H 
ATOM     61  N   UNL     1     -47.857  25.184  26.356  1.00  0.00    -0.275 N 
ATOM     62  H   UNL     1     -49.873  24.455  26.281  1.00  0.00     0.084 H 
BRANCH  61  63
ATOM     63  C   UNL     1     -47.191  24.133  27.088  1.00  0.00     0.030 C 
ATOM     64  H   UNL     1     -47.058  23.278  26.421  1.00  0.00     0.048 H 
ATOM     65  H   UNL     1     -47.814  23.861  27.944  1.00  0.00     0.048 H 
ATOM     66  H   UNL     1     -46.218  24.492  27.433  1.00  0.00     0.048 H 
ENDBRANCH  61  63
ENDBRANCH  48  56
BRANCH  52  67
ATOM     67  N   UNL     1     -45.419  26.380  23.300  1.00  0.00    -0.383 N 
ATOM     68  H   UNL     1     -46.005  25.971  24.020  1.00  0.00     0.158 HD
ATOM     69  H   UNL     1     -45.491  25.944  22.387  1.00  0.00     0.158 HD
ENDBRANCH  52  67
ENDBRANCH  37  45
ENDBRANCH  30  33
ENDBRANCH   1  30
TORSDOF 13
ENDMDL
MODEL 7
REMARK VINA RESULT:      -8.1      3.824      7.112
REMARK SMILES CN(CCO)c1ccc2ccc(OC[C@H]3O[C@@H](n4cc(-c5ccn(C)n5)c5c(N)ncnc54)[C@@H](F)[C@@H]3O)cc2n1
REMARK SMILES IDX 13 1 12 2 6 3 7 4 40 5 8 6 39 8 9 9 38 11 10 12 11 14 2 17
REMARK SMILES IDX 1 18 3 22 4 25 5 28 14 30 15 33 16 34 36 35 17 37 34 38
REMARK SMILES IDX 35 41 37 43 18 45 19 46 33 47 20 48 27 50 32 51 28 52 31 53
REMARK SMILES IDX 30 54 21 56 22 57 26 58 23 59 24 61 25 63 29 67
REMARK H PARENT 7 7 8 10 38 13 10 15 11 16 1 19 1 20 1 21 3 23 3 24 4 26 4 27
REMARK H PARENT 5 29 14 31 14 32 15 36 36 39 17 40 34 42 37 44 19 49 31 55
REMARK H PARENT 22 60 23 62 25 64 25 65 25 66 29 68 29 69
REMARK Flexibility Score: inf
ROOT
ATOM      1  O   UNL     1     -44.937  40.450  27.828  1.00  0.00    -0.491 OA
ENDROOT
BRANCH   1   2
ATOM      2  C   UNL     1     -45.912  39.496  27.740  1.00  0.00     0.121 A 
ATOM      3  C   UNL     1     -47.608  35.127  26.853  1.00  0.00     0.129 A 
ATOM      4  C   UNL     1     -48.897  35.518  27.212  1.00  0.00    -0.019 A 
ATOM      5  N   UNL     1     -46.588  36.014  26.886  1.00  0.00    -0.231 NA
ATOM      6  C   UNL     1     -49.137  36.822  27.633  1.00  0.00    -0.049 A 
ATOM      7  H   UNL     1     -49.723  34.818  27.145  1.00  0.00     0.066 H 
ATOM      8  C   UNL     1     -46.809  37.278  27.291  1.00  0.00     0.076 A 
ATOM      9  C   UNL     1     -48.081  37.732  27.681  1.00  0.00     0.001 A 
ATOM     10  H   UNL     1     -50.145  37.114  27.909  1.00  0.00     0.063 H 
ATOM     11  C   UNL     1     -45.746  38.173  27.326  1.00  0.00     0.007 A 
ATOM     12  C   UNL     1     -48.262  39.059  28.100  1.00  0.00    -0.049 A 
ATOM     13  H   UNL     1     -44.779  37.787  27.020  1.00  0.00     0.069 H 
ATOM     14  C   UNL     1     -47.178  39.933  28.128  1.00  0.00    -0.019 A 
ATOM     15  H   UNL     1     -49.244  39.416  28.401  1.00  0.00     0.063 H 
ATOM     16  H   UNL     1     -47.325  40.961  28.451  1.00  0.00     0.066 H 
BRANCH   3  17
ATOM     17  N   UNL     1     -47.367  33.817  26.410  1.00  0.00    -0.357 N 
BRANCH  17  18
ATOM     18  C   UNL     1     -48.579  33.057  26.117  1.00  0.00     0.008 C 
ATOM     19  H   UNL     1     -48.894  32.500  27.007  1.00  0.00     0.046 H 
ATOM     20  H   UNL     1     -49.411  33.719  25.853  1.00  0.00     0.046 H 
ATOM     21  H   UNL     1     -48.419  32.334  25.309  1.00  0.00     0.046 H 
ENDBRANCH  17  18
BRANCH  17  22
ATOM     22  C   UNL     1     -46.273  33.667  25.429  1.00  0.00     0.042 C 
ATOM     23  H   UNL     1     -46.302  34.512  24.729  1.00  0.00     0.052 H 
ATOM     24  H   UNL     1     -45.282  33.688  25.896  1.00  0.00     0.052 H 
BRANCH  22  25
ATOM     25  C   UNL     1     -46.442  32.366  24.631  1.00  0.00     0.061 C 
ATOM     26  H   UNL     1     -45.874  31.546  25.083  1.00  0.00     0.058 H 
ATOM     27  H   UNL     1     -47.499  32.087  24.599  1.00  0.00     0.058 H 
BRANCH  25  28
ATOM     28  O   UNL     1     -46.009  32.534  23.280  1.00  0.00    -0.395 OA
ATOM     29  H   UNL     1     -46.712  32.172  22.713  1.00  0.00     0.210 HD
ENDBRANCH  25  28
ENDBRANCH  22  25
ENDBRANCH  17  22
ENDBRANCH   3  17
ENDBRANCH   1   2
BRANCH   1  30
ATOM     30  C   UNL     1     -43.715  40.248  27.112  1.00  0.00     0.117 C 
ATOM     31  H   UNL     1     -43.935  39.522  26.319  1.00  0.00     0.073 H 
ATOM     32  H   UNL     1     -42.944  39.757  27.718  1.00  0.00     0.073 H 
BRANCH  30  33
ATOM     33  C   UNL     1     -43.215  41.546  26.478  1.00  0.00     0.123 C 
ATOM     34  O   UNL     1     -44.039  41.914  25.362  1.00  0.00    -0.345 OA
ATOM     35  C   UNL     1     -43.213  42.719  27.455  1.00  0.00     0.119 C 
ATOM     36  H   UNL     1     -42.196  41.394  26.099  1.00  0.00     0.067 H 
ATOM     37  C   UNL     1     -44.112  43.357  25.334  1.00  0.00     0.169 C 
ATOM     38  C   UNL     1     -43.329  43.905  26.522  1.00  0.00     0.173 C 
ATOM     39  H   UNL     1     -44.051  42.698  28.157  1.00  0.00     0.066 H 
ATOM     40  H   UNL     1     -43.630  43.676  24.403  1.00  0.00     0.088 H 
ATOM     41  F   UNL     1     -43.949  44.946  27.128  1.00  0.00    -0.239 F 
ATOM     42  H   UNL     1     -42.337  44.250  26.207  1.00  0.00     0.074 H 
BRANCH  35  43
ATOM     43  O   UNL     1     -42.007  42.767  28.218  1.00  0.00    -0.387 OA
ATOM     44  H   UNL     1     -41.984  43.642  28.651  1.00  0.00     0.211 HD
ENDBRANCH  35  43
BRANCH  37  45
ATOM     45  N   UNL     1     -45.507  43.762  25.248  1.00  0.00    -0.302 N 
ATOM     46  C   UNL     1     -46.520  43.172  25.964  1.00  0.00     0.019 A 
ATOM     47  C   UNL     1     -46.028  44.771  24.473  1.00  0.00     0.148 A 
ATOM     48  C   UNL     1     -47.706  43.792  25.621  1.00  0.00     0.033 A 
ATOM     49  H   UNL     1     -46.335  42.351  26.645  1.00  0.00     0.083 H 
ATOM     50  C   UNL     1     -47.401  44.840  24.704  1.00  0.00     0.071 A 
ATOM     51  N   UNL     1     -45.322  45.560  23.645  1.00  0.00    -0.218 NA
ATOM     52  C   UNL     1     -48.091  45.865  24.034  1.00  0.00     0.137 A 
ATOM     53  C   UNL     1     -46.096  46.471  23.038  1.00  0.00     0.120 A 
ATOM     54  N   UNL     1     -47.415  46.672  23.192  1.00  0.00    -0.219 NA
ATOM     55  H   UNL     1     -45.594  47.136  22.342  1.00  0.00     0.106 H 
BRANCH  48  56
ATOM     56  C   UNL     1     -49.023  43.421  26.130  1.00  0.00     0.095 A 
ATOM     57  C   UNL     1     -49.341  43.200  27.487  1.00  0.00    -0.016 A 
ATOM     58  N   UNL     1     -50.098  43.313  25.341  1.00  0.00    -0.173 NA
ATOM     59  C   UNL     1     -50.687  42.916  27.492  1.00  0.00     0.025 A 
ATOM     60  H   UNL     1     -48.684  43.249  28.345  1.00  0.00     0.066 H 
ATOM     61  N   UNL     1     -51.090  42.998  26.193  1.00  0.00    -0.275 N 
ATOM     62  H   UNL     1     -51.372  42.681  28.295  1.00  0.00     0.084 H 
BRANCH  61  63
ATOM     63  C   UNL     1     -52.425  42.796  25.682  1.00  0.00     0.030 C 
ATOM     64  H   UNL     1     -52.470  41.808  25.218  1.00  0.00     0.048 H 
ATOM     65  H   UNL     1     -52.634  43.577  24.946  1.00  0.00     0.048 H 
ATOM     66  H   UNL     1     -53.142  42.856  26.505  1.00  0.00     0.048 H 
ENDBRANCH  61  63
ENDBRANCH  48  56
BRANCH  52  67
ATOM     67  N   UNL     1     -49.441  46.154  24.202  1.00  0.00    -0.383 N 
ATOM     68  H   UNL     1     -49.706  47.062  23.837  1.00  0.00     0.158 HD
ATOM     69  H   UNL     1     -49.997  45.375  23.865  1.00  0.00     0.158 HD
ENDBRANCH  52  67
ENDBRANCH  37  45
ENDBRANCH  30  33
ENDBRANCH   1  30
TORSDOF 13
ENDMDL
