MODEL 1
REMARK VINA RESULT:      -7.7      0.000      0.000
REMARK SMILES CN1CCC(NC(=O)[C@H]2O[C@@H](n3cnc4c(N)ncnc43)[C@H](O)[C@@H]2O)CC1
REMARK SMILES IDX 9 1 10 2 11 3 22 4 24 5 7 10 6 11 8 13 5 14 2 15 3 16 27 17
REMARK SMILES IDX 4 18 26 21 1 29 25 33 12 35 13 36 21 37 14 38 15 40 20 41
REMARK SMILES IDX 16 42 19 43 18 44 17 46 23 49
REMARK H PARENT 9 6 11 7 22 8 24 9 6 12 3 19 3 20 27 22 27 23 4 24 4 25 26 26
REMARK H PARENT 26 27 5 28 1 30 1 31 1 32 25 34 13 39 19 45 17 47 17 48 23 50
REMARK Flexibility Score: inf
ROOT
ATOM      1  C   UNL     1     -46.368  40.145  26.232  1.00  0.00     0.167 C 
ATOM      2  O   UNL     1     -46.588  38.717  26.225  1.00  0.00    -0.339 OA
ATOM      3  C   UNL     1     -47.450  38.393  27.340  1.00  0.00     0.166 C 
ATOM      4  C   UNL     1     -47.464  39.625  28.255  1.00  0.00     0.128 C 
ATOM      5  C   UNL     1     -47.335  40.746  27.241  1.00  0.00     0.120 C 
ATOM      6  H   UNL     1     -46.548  40.522  25.218  1.00  0.00     0.074 H 
ATOM      7  H   UNL     1     -48.449  38.164  26.950  1.00  0.00     0.088 H 
ATOM      8  H   UNL     1     -46.608  39.632  28.940  1.00  0.00     0.068 H 
ATOM      9  H   UNL     1     -47.022  41.694  27.685  1.00  0.00     0.066 H 
ENDROOT
BRANCH   1  10
ATOM     10  C   UNL     1     -44.908  40.439  26.597  1.00  0.00     0.252 C 
ATOM     11  N   UNL     1     -44.517  41.720  26.269  1.00  0.00    -0.351 N 
ATOM     12  H   UNL     1     -45.066  42.186  25.548  1.00  0.00     0.163 HD
ATOM     13  O   UNL     1     -44.171  39.625  27.145  1.00  0.00    -0.272 OA
BRANCH  11  14
ATOM     14  C   UNL     1     -43.144  42.190  26.430  1.00  0.00     0.031 C 
ATOM     15  N   UNL     1     -44.130  44.401  27.725  1.00  0.00    -0.306 NA
ATOM     16  C   UNL     1     -43.050  43.747  28.464  1.00  0.00    -0.000 C 
ATOM     17  C   UNL     1     -43.727  44.663  26.331  1.00  0.00    -0.000 C 
ATOM     18  C   UNL     1     -42.803  42.332  27.922  1.00  0.00    -0.020 C 
ATOM     19  H   UNL     1     -42.126  44.338  28.407  1.00  0.00     0.043 H 
ATOM     20  H   UNL     1     -43.302  43.662  29.529  1.00  0.00     0.043 H 
ATOM     21  C   UNL     1     -42.915  43.519  25.709  1.00  0.00    -0.020 C 
ATOM     22  H   UNL     1     -44.631  44.820  25.733  1.00  0.00     0.043 H 
ATOM     23  H   UNL     1     -43.133  45.584  26.252  1.00  0.00     0.043 H 
ATOM     24  H   UNL     1     -41.743  42.094  28.074  1.00  0.00     0.030 H 
ATOM     25  H   UNL     1     -43.374  41.602  28.510  1.00  0.00     0.030 H 
ATOM     26  H   UNL     1     -43.157  43.438  24.642  1.00  0.00     0.030 H 
ATOM     27  H   UNL     1     -41.847  43.768  25.770  1.00  0.00     0.030 H 
ATOM     28  H   UNL     1     -42.496  41.424  25.987  1.00  0.00     0.053 H 
BRANCH  15  29
ATOM     29  C   UNL     1     -44.548  45.644  28.375  1.00  0.00    -0.013 C 
ATOM     30  H   UNL     1     -44.244  46.512  27.780  1.00  0.00     0.039 H 
ATOM     31  H   UNL     1     -44.124  45.748  29.380  1.00  0.00     0.039 H 
ATOM     32  H   UNL     1     -45.640  45.685  28.456  1.00  0.00     0.039 H 
ENDBRANCH  15  29
ENDBRANCH  11  14
ENDBRANCH   1  10
BRANCH   5  33
ATOM     33  O   UNL     1     -48.616  40.973  26.626  1.00  0.00    -0.387 OA
ATOM     34  H   UNL     1     -49.259  40.519  27.212  1.00  0.00     0.211 HD
ENDBRANCH   5  33
BRANCH   3  35
ATOM     35  N   UNL     1     -46.972  37.175  27.970  1.00  0.00    -0.285 N 
ATOM     36  C   UNL     1     -46.503  37.047  29.252  1.00  0.00     0.099 A 
ATOM     37  C   UNL     1     -46.816  35.958  27.358  1.00  0.00     0.167 A 
ATOM     38  N   UNL     1     -46.103  35.820  29.515  1.00  0.00    -0.231 NA
ATOM     39  H   UNL     1     -46.482  37.874  29.953  1.00  0.00     0.104 H 
ATOM     40  C   UNL     1     -46.296  35.128  28.339  1.00  0.00     0.150 A 
ATOM     41  N   UNL     1     -47.106  35.630  26.086  1.00  0.00    -0.216 NA
ATOM     42  C   UNL     1     -46.050  33.794  27.974  1.00  0.00     0.155 A 
ATOM     43  C   UNL     1     -46.815  34.330  25.850  1.00  0.00     0.120 A 
ATOM     44  N   UNL     1     -46.309  33.415  26.703  1.00  0.00    -0.217 NA
ATOM     45  H   UNL     1     -47.013  33.973  24.843  1.00  0.00     0.106 H 
BRANCH  42  46
ATOM     46  N   UNL     1     -45.533  32.849  28.850  1.00  0.00    -0.382 N 
ATOM     47  H   UNL     1     -46.231  32.202  29.202  1.00  0.00     0.158 HD
ATOM     48  H   UNL     1     -44.891  33.257  29.517  1.00  0.00     0.158 HD
ENDBRANCH  42  46
ENDBRANCH   3  35
BRANCH   4  49
ATOM     49  O   UNL     1     -48.668  39.786  29.005  1.00  0.00    -0.386 OA
ATOM     50  H   UNL     1     -49.362  39.290  28.515  1.00  0.00     0.211 HD
ENDBRANCH   4  49
TORSDOF 7
ENDMDL
MODEL 2
REMARK VINA RESULT:      -7.6     10.632     13.222
REMARK SMILES CN1CCC(NC(=O)[C@H]2O[C@@H](n3cnc4c(N)ncnc43)[C@H](O)[C@@H]2O)CC1
REMARK SMILES IDX 9 1 10 2 11 3 22 4 24 5 7 10 6 11 8 13 5 14 2 15 3 16 27 17
REMARK SMILES IDX 4 18 26 21 1 29 25 33 12 35 13 36 21 37 14 38 15 40 20 41
REMARK SMILES IDX 16 42 19 43 18 44 17 46 23 49
REMARK H PARENT 9 6 11 7 22 8 24 9 6 12 3 19 3 20 27 22 27 23 4 24 4 25 26 26
REMARK H PARENT 26 27 5 28 1 30 1 31 1 32 25 34 13 39 19 45 17 47 17 48 23 50
REMARK Flexibility Score: inf
ROOT
ATOM      1  C   UNL     1     -49.938  26.187  25.044  1.00  0.00     0.167 C 
ATOM      2  O   UNL     1     -48.874  26.769  24.258  1.00  0.00    -0.339 OA
ATOM      3  C   UNL     1     -48.066  27.584  25.137  1.00  0.00     0.166 C 
ATOM      4  C   UNL     1     -48.878  27.776  26.425  1.00  0.00     0.128 C 
ATOM      5  C   UNL     1     -49.619  26.456  26.506  1.00  0.00     0.120 C 
ATOM      6  H   UNL     1     -49.974  25.113  24.824  1.00  0.00     0.074 H 
ATOM      7  H   UNL     1     -47.122  27.058  25.326  1.00  0.00     0.088 H 
ATOM      8  H   UNL     1     -49.589  28.607  26.336  1.00  0.00     0.068 H 
ATOM      9  H   UNL     1     -50.482  26.487  27.177  1.00  0.00     0.066 H 
ENDROOT
BRANCH   1  10
ATOM     10  C   UNL     1     -51.280  26.803  24.630  1.00  0.00     0.252 C 
ATOM     11  N   UNL     1     -51.275  27.289  23.340  1.00  0.00    -0.351 N 
ATOM     12  H   UNL     1     -50.361  27.509  22.946  1.00  0.00     0.163 HD
ATOM     13  O   UNL     1     -52.263  26.839  25.364  1.00  0.00    -0.272 OA
BRANCH  11  14
ATOM     14  C   UNL     1     -52.408  28.010  22.766  1.00  0.00     0.031 C 
ATOM     15  N   UNL     1     -50.621  29.567  21.380  1.00  0.00    -0.306 NA
ATOM     16  C   UNL     1     -51.678  29.023  20.527  1.00  0.00    -0.000 C 
ATOM     17  C   UNL     1     -51.194  30.235  22.562  1.00  0.00    -0.000 C 
ATOM     18  C   UNL     1     -52.405  27.871  21.235  1.00  0.00    -0.020 C 
ATOM     19  H   UNL     1     -52.396  29.806  20.249  1.00  0.00     0.043 H 
ATOM     20  H   UNL     1     -51.261  28.633  19.589  1.00  0.00     0.043 H 
ATOM     21  C   UNL     1     -52.394  29.487  23.160  1.00  0.00    -0.020 C 
ATOM     22  H   UNL     1     -50.413  30.317  23.326  1.00  0.00     0.043 H 
ATOM     23  H   UNL     1     -51.514  31.260  22.328  1.00  0.00     0.043 H 
ATOM     24  H   UNL     1     -53.440  27.854  20.873  1.00  0.00     0.030 H 
ATOM     25  H   UNL     1     -51.957  26.911  20.945  1.00  0.00     0.030 H 
ATOM     26  H   UNL     1     -52.392  29.607  24.250  1.00  0.00     0.030 H 
ATOM     27  H   UNL     1     -53.319  29.953  22.795  1.00  0.00     0.030 H 
ATOM     28  H   UNL     1     -53.315  27.539  23.165  1.00  0.00     0.053 H 
BRANCH  15  29
ATOM     29  C   UNL     1     -49.760  30.491  20.641  1.00  0.00    -0.013 C 
ATOM     30  H   UNL     1     -48.823  30.662  21.182  1.00  0.00     0.039 H 
ATOM     31  H   UNL     1     -50.243  31.459  20.470  1.00  0.00     0.039 H 
ATOM     32  H   UNL     1     -49.487  30.066  19.669  1.00  0.00     0.039 H 
ENDBRANCH  15  29
ENDBRANCH  11  14
ENDBRANCH   1  10
BRANCH   5  33
ATOM     33  O   UNL     1     -48.727  25.447  27.014  1.00  0.00    -0.387 OA
ATOM     34  H   UNL     1     -48.219  25.896  27.722  1.00  0.00     0.211 HD
ENDBRANCH   5  33
BRANCH   3  35
ATOM     35  N   UNL     1     -47.714  28.815  24.452  1.00  0.00    -0.285 N 
ATOM     36  C   UNL     1     -48.406  29.998  24.489  1.00  0.00     0.099 A 
ATOM     37  C   UNL     1     -46.677  28.979  23.570  1.00  0.00     0.167 A 
ATOM     38  N   UNL     1     -47.855  30.920  23.727  1.00  0.00    -0.231 NA
ATOM     39  H   UNL     1     -49.298  30.136  25.090  1.00  0.00     0.104 H 
ATOM     40  C   UNL     1     -46.771  30.296  23.148  1.00  0.00     0.150 A 
ATOM     41  N   UNL     1     -45.761  28.068  23.194  1.00  0.00    -0.216 NA
ATOM     42  C   UNL     1     -45.801  30.738  22.234  1.00  0.00     0.155 A 
ATOM     43  C   UNL     1     -44.894  28.604  22.304  1.00  0.00     0.120 A 
ATOM     44  N   UNL     1     -44.866  29.859  21.810  1.00  0.00    -0.217 NA
ATOM     45  H   UNL     1     -44.116  27.938  21.938  1.00  0.00     0.106 H 
BRANCH  42  46
ATOM     46  N   UNL     1     -45.767  32.030  21.726  1.00  0.00    -0.382 N 
ATOM     47  H   UNL     1     -45.615  32.066  20.724  1.00  0.00     0.158 HD
ATOM     48  H   UNL     1     -45.222  32.655  22.307  1.00  0.00     0.158 HD
ENDBRANCH  42  46
ENDBRANCH   3  35
BRANCH   4  49
ATOM     49  O   UNL     1     -48.084  27.960  27.598  1.00  0.00    -0.386 OA
ATOM     50  H   UNL     1     -48.354  27.250  28.222  1.00  0.00     0.211 HD
ENDBRANCH   4  49
TORSDOF 7
ENDMDL
MODEL 3
REMARK VINA RESULT:      -7.4      3.352      9.104
REMARK SMILES CN1CCC(NC(=O)[C@H]2O[C@@H](n3cnc4c(N)ncnc43)[C@H](O)[C@@H]2O)CC1
REMARK SMILES IDX 9 1 10 2 11 3 22 4 24 5 7 10 6 11 8 13 5 14 2 15 3 16 27 17
REMARK SMILES IDX 4 18 26 21 1 29 25 33 12 35 13 36 21 37 14 38 15 40 20 41
REMARK SMILES IDX 16 42 19 43 18 44 17 46 23 49
REMARK H PARENT 9 6 11 7 22 8 24 9 6 12 3 19 3 20 27 22 27 23 4 24 4 25 26 26
REMARK H PARENT 26 27 5 28 1 30 1 31 1 32 25 34 13 39 19 45 17 47 17 48 23 50
REMARK Flexibility Score: inf
ROOT
ATOM      1  C   UNL     1     -46.627  34.441  26.589  1.00  0.00     0.167 C 
ATOM      2  O   UNL     1     -46.784  35.860  26.360  1.00  0.00    -0.339 OA
ATOM      3  C   UNL     1     -46.658  36.533  27.634  1.00  0.00     0.166 C 
ATOM      4  C   UNL     1     -46.776  35.450  28.715  1.00  0.00     0.128 C 
ATOM      5  C   UNL     1     -46.135  34.266  28.017  1.00  0.00     0.120 C 
ATOM      6  H   UNL     1     -45.904  34.058  25.858  1.00  0.00     0.074 H 
ATOM      7  H   UNL     1     -45.682  37.034  27.665  1.00  0.00     0.088 H 
ATOM      8  H   UNL     1     -47.824  35.230  28.955  1.00  0.00     0.068 H 
ATOM      9  H   UNL     1     -46.379  33.308  28.484  1.00  0.00     0.066 H 
ENDROOT
BRANCH   1  10
ATOM     10  C   UNL     1     -47.965  33.730  26.354  1.00  0.00     0.252 C 
ATOM     11  N   UNL     1     -47.817  32.453  25.856  1.00  0.00    -0.351 N 
ATOM     12  H   UNL     1     -46.936  32.254  25.385  1.00  0.00     0.163 HD
ATOM     13  O   UNL     1     -49.054  34.238  26.605  1.00  0.00    -0.272 OA
BRANCH  11  14
ATOM     14  C   UNL     1     -48.954  31.626  25.460  1.00  0.00     0.031 C 
ATOM     15  N   UNL     1     -47.270  30.237  23.795  1.00  0.00    -0.306 NA
ATOM     16  C   UNL     1     -48.070  29.361  24.651  1.00  0.00    -0.000 C 
ATOM     17  C   UNL     1     -48.129  31.208  23.092  1.00  0.00    -0.000 C 
ATOM     18  C   UNL     1     -48.687  30.154  25.812  1.00  0.00    -0.020 C 
ATOM     19  H   UNL     1     -48.860  28.866  24.072  1.00  0.00     0.043 H 
ATOM     20  H   UNL     1     -47.450  28.563  25.080  1.00  0.00     0.043 H 
ATOM     21  C   UNL     1     -49.259  31.765  23.968  1.00  0.00    -0.020 C 
ATOM     22  H   UNL     1     -47.504  32.040  22.751  1.00  0.00     0.043 H 
ATOM     23  H   UNL     1     -48.581  30.765  22.194  1.00  0.00     0.043 H 
ATOM     24  H   UNL     1     -49.634  29.671  26.082  1.00  0.00     0.030 H 
ATOM     25  H   UNL     1     -48.039  30.089  26.695  1.00  0.00     0.030 H 
ATOM     26  H   UNL     1     -49.449  32.811  23.697  1.00  0.00     0.030 H 
ATOM     27  H   UNL     1     -50.182  31.212  23.750  1.00  0.00     0.030 H 
ATOM     28  H   UNL     1     -49.817  31.981  26.038  1.00  0.00     0.053 H 
BRANCH  15  29
ATOM     29  C   UNL     1     -46.478  29.469  22.834  1.00  0.00    -0.013 C 
ATOM     30  H   UNL     1     -47.103  29.135  21.998  1.00  0.00     0.039 H 
ATOM     31  H   UNL     1     -46.013  28.589  23.291  1.00  0.00     0.039 H 
ATOM     32  H   UNL     1     -45.687  30.094  22.405  1.00  0.00     0.039 H 
ENDBRANCH  15  29
ENDBRANCH  11  14
ENDBRANCH   1  10
BRANCH   5  33
ATOM     33  O   UNL     1     -44.704  34.407  28.071  1.00  0.00    -0.387 OA
ATOM     34  H   UNL     1     -44.449  34.711  27.174  1.00  0.00     0.211 HD
ENDBRANCH   5  33
BRANCH   3  35
ATOM     35  N   UNL     1     -47.656  37.584  27.715  1.00  0.00    -0.285 N 
ATOM     36  C   UNL     1     -48.969  37.438  28.083  1.00  0.00     0.099 A 
ATOM     37  C   UNL     1     -47.481  38.893  27.345  1.00  0.00     0.167 A 
ATOM     38  N   UNL     1     -49.632  38.574  28.017  1.00  0.00    -0.231 NA
ATOM     39  H   UNL     1     -49.387  36.488  28.395  1.00  0.00     0.104 H 
ATOM     40  C   UNL     1     -48.713  39.493  27.559  1.00  0.00     0.150 A 
ATOM     41  N   UNL     1     -46.363  39.477  26.879  1.00  0.00    -0.216 NA
ATOM     42  C   UNL     1     -48.808  40.863  27.269  1.00  0.00     0.155 A 
ATOM     43  C   UNL     1     -46.581  40.787  26.621  1.00  0.00     0.120 A 
ATOM     44  N   UNL     1     -47.718  41.497  26.782  1.00  0.00    -0.217 NA
ATOM     45  H   UNL     1     -45.731  41.344  26.235  1.00  0.00     0.106 H 
BRANCH  42  46
ATOM     46  N   UNL     1     -49.975  41.597  27.436  1.00  0.00    -0.382 N 
ATOM     47  H   UNL     1     -50.505  41.712  26.579  1.00  0.00     0.158 HD
ATOM     48  H   UNL     1     -49.832  42.415  28.014  1.00  0.00     0.158 HD
ENDBRANCH  42  46
ENDBRANCH   3  35
BRANCH   4  49
ATOM     49  O   UNL     1     -46.070  35.744  29.921  1.00  0.00    -0.386 OA
ATOM     50  H   UNL     1     -46.730  36.138  30.533  1.00  0.00     0.211 HD
ENDBRANCH   4  49
TORSDOF 7
ENDMDL
MODEL 4
REMARK VINA RESULT:      -7.3      2.975      7.764
REMARK SMILES CN1CCC(NC(=O)[C@H]2O[C@@H](n3cnc4c(N)ncnc43)[C@H](O)[C@@H]2O)CC1
REMARK SMILES IDX 9 1 10 2 11 3 22 4 24 5 7 10 6 11 8 13 5 14 2 15 3 16 27 17
REMARK SMILES IDX 4 18 26 21 1 29 25 33 12 35 13 36 21 37 14 38 15 40 20 41
REMARK SMILES IDX 16 42 19 43 18 44 17 46 23 49
REMARK H PARENT 9 6 11 7 22 8 24 9 6 12 3 19 3 20 27 22 27 23 4 24 4 25 26 26
REMARK H PARENT 26 27 5 28 1 30 1 31 1 32 25 34 13 39 19 45 17 47 17 48 23 50
REMARK Flexibility Score: inf
ROOT
ATOM      1  C   UNL     1     -43.161  40.956  26.945  1.00  0.00     0.167 C 
ATOM      2  O   UNL     1     -44.249  41.209  26.028  1.00  0.00    -0.339 OA
ATOM      3  C   UNL     1     -44.456  42.639  25.965  1.00  0.00     0.166 C 
ATOM      4  C   UNL     1     -43.695  43.243  27.152  1.00  0.00     0.128 C 
ATOM      5  C   UNL     1     -42.515  42.296  27.259  1.00  0.00     0.120 C 
ATOM      6  H   UNL     1     -42.460  40.268  26.457  1.00  0.00     0.074 H 
ATOM      7  H   UNL     1     -44.068  43.002  25.006  1.00  0.00     0.088 H 
ATOM      8  H   UNL     1     -44.291  43.215  28.073  1.00  0.00     0.068 H 
ATOM      9  H   UNL     1     -42.001  42.356  28.223  1.00  0.00     0.066 H 
ENDROOT
BRANCH   1  10
ATOM     10  C   UNL     1     -43.700  40.272  28.207  1.00  0.00     0.252 C 
ATOM     11  N   UNL     1     -44.804  39.483  27.963  1.00  0.00    -0.351 N 
ATOM     12  H   UNL     1     -45.333  39.699  27.119  1.00  0.00     0.163 HD
ATOM     13  O   UNL     1     -43.187  40.396  29.315  1.00  0.00    -0.272 OA
BRANCH  11  14
ATOM     14  C   UNL     1     -45.547  38.816  29.029  1.00  0.00     0.031 C 
ATOM     15  N   UNL     1     -46.300  36.904  27.209  1.00  0.00    -0.306 NA
ATOM     16  C   UNL     1     -45.760  36.330  28.442  1.00  0.00    -0.000 C 
ATOM     17  C   UNL     1     -47.359  37.885  27.508  1.00  0.00    -0.000 C 
ATOM     18  C   UNL     1     -45.002  37.396  29.247  1.00  0.00    -0.020 C 
ATOM     19  H   UNL     1     -46.562  35.896  29.053  1.00  0.00     0.043 H 
ATOM     20  H   UNL     1     -45.060  35.515  28.218  1.00  0.00     0.043 H 
ATOM     21  C   UNL     1     -47.045  38.766  28.725  1.00  0.00    -0.020 C 
ATOM     22  H   UNL     1     -47.493  38.528  26.632  1.00  0.00     0.043 H 
ATOM     23  H   UNL     1     -48.325  37.391  27.686  1.00  0.00     0.043 H 
ATOM     24  H   UNL     1     -45.087  37.137  30.310  1.00  0.00     0.030 H 
ATOM     25  H   UNL     1     -43.933  37.360  29.001  1.00  0.00     0.030 H 
ATOM     26  H   UNL     1     -47.451  39.771  28.563  1.00  0.00     0.030 H 
ATOM     27  H   UNL     1     -47.563  38.356  29.603  1.00  0.00     0.030 H 
ATOM     28  H   UNL     1     -45.384  39.405  29.941  1.00  0.00     0.053 H 
BRANCH  15  29
ATOM     29  C   UNL     1     -46.809  35.864  26.313  1.00  0.00    -0.013 C 
ATOM     30  H   UNL     1     -47.471  36.298  25.556  1.00  0.00     0.039 H 
ATOM     31  H   UNL     1     -47.361  35.088  26.852  1.00  0.00     0.039 H 
ATOM     32  H   UNL     1     -45.983  35.388  25.773  1.00  0.00     0.039 H 
ENDBRANCH  15  29
ENDBRANCH  11  14
ENDBRANCH   1  10
BRANCH   5  33
ATOM     33  O   UNL     1     -41.549  42.632  26.247  1.00  0.00    -0.387 OA
ATOM     34  H   UNL     1     -41.213  41.769  25.926  1.00  0.00     0.211 HD
ENDBRANCH   5  33
BRANCH   3  35
ATOM     35  N   UNL     1     -45.882  42.911  25.956  1.00  0.00    -0.285 N 
ATOM     36  C   UNL     1     -46.884  42.036  26.284  1.00  0.00     0.099 A 
ATOM     37  C   UNL     1     -46.479  44.068  25.524  1.00  0.00     0.167 A 
ATOM     38  N   UNL     1     -48.079  42.569  26.135  1.00  0.00    -0.231 NA
ATOM     39  H   UNL     1     -46.690  41.027  26.631  1.00  0.00     0.104 H 
ATOM     40  C   UNL     1     -47.840  43.841  25.663  1.00  0.00     0.150 A 
ATOM     41  N   UNL     1     -45.883  45.184  25.067  1.00  0.00    -0.216 NA
ATOM     42  C   UNL     1     -48.696  44.893  25.297  1.00  0.00     0.155 A 
ATOM     43  C   UNL     1     -46.807  46.115  24.734  1.00  0.00     0.120 A 
ATOM     44  N   UNL     1     -48.151  46.032  24.816  1.00  0.00    -0.217 NA
ATOM     45  H   UNL     1     -46.418  47.055  24.349  1.00  0.00     0.106 H 
BRANCH  42  46
ATOM     46  N   UNL     1     -50.080  44.812  25.384  1.00  0.00    -0.382 N 
ATOM     47  H   UNL     1     -50.459  45.271  26.205  1.00  0.00     0.158 HD
ATOM     48  H   UNL     1     -50.423  43.886  25.162  1.00  0.00     0.158 HD
ENDBRANCH  42  46
ENDBRANCH   3  35
BRANCH   4  49
ATOM     49  O   UNL     1     -43.230  44.576  26.935  1.00  0.00    -0.386 OA
ATOM     50  H   UNL     1     -42.283  44.495  26.682  1.00  0.00     0.211 HD
ENDBRANCH   4  49
TORSDOF 7
ENDMDL
MODEL 5
REMARK VINA RESULT:      -7.3      6.746     11.164
REMARK SMILES CN1CCC(NC(=O)[C@H]2O[C@@H](n3cnc4c(N)ncnc43)[C@H](O)[C@@H]2O)CC1
REMARK SMILES IDX 9 1 10 2 11 3 22 4 24 5 7 10 6 11 8 13 5 14 2 15 3 16 27 17
REMARK SMILES IDX 4 18 26 21 1 29 25 33 12 35 13 36 21 37 14 38 15 40 20 41
REMARK SMILES IDX 16 42 19 43 18 44 17 46 23 49
REMARK H PARENT 9 6 11 7 22 8 24 9 6 12 3 19 3 20 27 22 27 23 4 24 4 25 26 26
REMARK H PARENT 26 27 5 28 1 30 1 31 1 32 25 34 13 39 19 45 17 47 17 48 23 50
REMARK Flexibility Score: inf
ROOT
ATOM      1  C   UNL     1     -46.847  30.462  22.060  1.00  0.00     0.167 C 
ATOM      2  O   UNL     1     -46.688  31.516  23.036  1.00  0.00    -0.339 OA
ATOM      3  C   UNL     1     -47.073  30.991  24.327  1.00  0.00     0.166 C 
ATOM      4  C   UNL     1     -47.822  29.678  24.059  1.00  0.00     0.128 C 
ATOM      5  C   UNL     1     -47.098  29.173  22.826  1.00  0.00     0.120 C 
ATOM      6  H   UNL     1     -45.929  30.411  21.463  1.00  0.00     0.074 H 
ATOM      7  H   UNL     1     -46.165  30.827  24.919  1.00  0.00     0.088 H 
ATOM      8  H   UNL     1     -48.881  29.854  23.834  1.00  0.00     0.068 H 
ATOM      9  H   UNL     1     -47.657  28.405  22.283  1.00  0.00     0.066 H 
ENDROOT
BRANCH   1  10
ATOM     10  C   UNL     1     -48.009  30.803  21.119  1.00  0.00     0.252 C 
ATOM     11  N   UNL     1     -49.139  31.223  21.788  1.00  0.00    -0.351 N 
ATOM     12  H   UNL     1     -49.214  30.942  22.764  1.00  0.00     0.163 HD
ATOM     13  O   UNL     1     -47.933  30.730  19.896  1.00  0.00    -0.272 OA
BRANCH  11  14
ATOM     14  C   UNL     1     -50.399  31.503  21.105  1.00  0.00     0.031 C 
ATOM     15  N   UNL     1     -51.648  29.815  22.873  1.00  0.00    -0.306 NA
ATOM     16  C   UNL     1     -52.323  31.107  22.753  1.00  0.00    -0.000 C 
ATOM     17  C   UNL     1     -51.420  29.216  21.546  1.00  0.00    -0.000 C 
ATOM     18  C   UNL     1     -51.402  32.137  22.082  1.00  0.00    -0.020 C 
ATOM     19  H   UNL     1     -53.255  31.007  22.181  1.00  0.00     0.043 H 
ATOM     20  H   UNL     1     -52.601  31.496  23.740  1.00  0.00     0.043 H 
ATOM     21  C   UNL     1     -50.995  30.240  20.483  1.00  0.00    -0.020 C 
ATOM     22  H   UNL     1     -50.635  28.457  21.637  1.00  0.00     0.043 H 
ATOM     23  H   UNL     1     -52.317  28.698  21.180  1.00  0.00     0.043 H 
ATOM     24  H   UNL     1     -52.035  32.848  21.537  1.00  0.00     0.030 H 
ATOM     25  H   UNL     1     -50.869  32.716  22.847  1.00  0.00     0.030 H 
ATOM     26  H   UNL     1     -50.292  29.770  19.785  1.00  0.00     0.030 H 
ATOM     27  H   UNL     1     -51.877  30.525  19.894  1.00  0.00     0.030 H 
ATOM     28  H   UNL     1     -50.172  32.223  20.309  1.00  0.00     0.053 H 
BRANCH  15  29
ATOM     29  C   UNL     1     -52.404  28.893  23.723  1.00  0.00    -0.013 C 
ATOM     30  H   UNL     1     -51.754  28.096  24.102  1.00  0.00     0.039 H 
ATOM     31  H   UNL     1     -53.242  28.432  23.190  1.00  0.00     0.039 H 
ATOM     32  H   UNL     1     -52.799  29.419  24.599  1.00  0.00     0.039 H 
ENDBRANCH  15  29
ENDBRANCH  11  14
ENDBRANCH   1  10
BRANCH   5  33
ATOM     33  O   UNL     1     -45.849  28.580  23.224  1.00  0.00    -0.387 OA
ATOM     34  H   UNL     1     -45.164  29.213  22.923  1.00  0.00     0.211 HD
ENDBRANCH   5  33
BRANCH   3  35
ATOM     35  N   UNL     1     -47.844  31.995  25.036  1.00  0.00    -0.285 N 
ATOM     36  C   UNL     1     -49.208  32.036  25.171  1.00  0.00     0.099 A 
ATOM     37  C   UNL     1     -47.346  33.134  25.616  1.00  0.00     0.167 A 
ATOM     38  N   UNL     1     -49.611  33.098  25.837  1.00  0.00    -0.231 NA
ATOM     39  H   UNL     1     -49.858  31.265  24.772  1.00  0.00     0.104 H 
ATOM     40  C   UNL     1     -48.456  33.792  26.123  1.00  0.00     0.150 A 
ATOM     41  N   UNL     1     -46.063  33.532  25.685  1.00  0.00    -0.216 NA
ATOM     42  C   UNL     1     -48.220  35.004  26.793  1.00  0.00     0.155 A 
ATOM     43  C   UNL     1     -45.964  34.713  26.337  1.00  0.00     0.120 A 
ATOM     44  N   UNL     1     -46.950  35.459  26.878  1.00  0.00    -0.217 NA
ATOM     45  H   UNL     1     -44.960  35.118  26.439  1.00  0.00     0.106 H 
BRANCH  42  46
ATOM     46  N   UNL     1     -49.232  35.772  27.355  1.00  0.00    -0.382 N 
ATOM     47  H   UNL     1     -48.892  36.600  27.832  1.00  0.00     0.158 HD
ATOM     48  H   UNL     1     -49.922  35.205  27.831  1.00  0.00     0.158 HD
ENDBRANCH  42  46
ENDBRANCH   3  35
BRANCH   4  49
ATOM     49  O   UNL     1     -47.719  28.718  25.111  1.00  0.00    -0.386 OA
ATOM     50  H   UNL     1     -48.090  27.881  24.752  1.00  0.00     0.211 HD
ENDBRANCH   4  49
TORSDOF 7
ENDMDL
MODEL 6
REMARK VINA RESULT:      -7.3      2.529      8.365
REMARK SMILES CN1CCC(NC(=O)[C@H]2O[C@@H](n3cnc4c(N)ncnc43)[C@H](O)[C@@H]2O)CC1
REMARK SMILES IDX 9 1 10 2 11 3 22 4 24 5 7 10 6 11 8 13 5 14 2 15 3 16 27 17
REMARK SMILES IDX 4 18 26 21 1 29 25 33 12 35 13 36 21 37 14 38 15 40 20 41
REMARK SMILES IDX 16 42 19 43 18 44 17 46 23 49
REMARK H PARENT 9 6 11 7 22 8 24 9 6 12 3 19 3 20 27 22 27 23 4 24 4 25 26 26
REMARK H PARENT 26 27 5 28 1 30 1 31 1 32 25 34 13 39 19 45 17 47 17 48 23 50
REMARK Flexibility Score: inf
ROOT
ATOM      1  C   UNL     1     -45.626  35.990  28.648  1.00  0.00     0.167 C 
ATOM      2  O   UNL     1     -44.540  36.932  28.500  1.00  0.00    -0.339 OA
ATOM      3  C   UNL     1     -44.787  38.042  29.394  1.00  0.00     0.166 C 
ATOM      4  C   UNL     1     -46.251  37.927  29.839  1.00  0.00     0.128 C 
ATOM      5  C   UNL     1     -46.435  36.421  29.860  1.00  0.00     0.120 C 
ATOM      6  H   UNL     1     -45.192  34.991  28.780  1.00  0.00     0.074 H 
ATOM      7  H   UNL     1     -44.097  37.963  30.243  1.00  0.00     0.088 H 
ATOM      8  H   UNL     1     -46.934  38.383  29.111  1.00  0.00     0.068 H 
ATOM      9  H   UNL     1     -47.485  36.116  29.857  1.00  0.00     0.066 H 
ENDROOT
BRANCH   1  10
ATOM     10  C   UNL     1     -46.473  35.977  27.370  1.00  0.00     0.252 C 
ATOM     11  N   UNL     1     -46.875  34.710  27.003  1.00  0.00    -0.351 N 
ATOM     12  H   UNL     1     -46.318  33.939  27.367  1.00  0.00     0.163 HD
ATOM     13  O   UNL     1     -46.781  36.991  26.752  1.00  0.00    -0.272 OA
BRANCH  11  14
ATOM     14  C   UNL     1     -47.604  34.444  25.766  1.00  0.00     0.031 C 
ATOM     15  N   UNL     1     -47.778  31.810  26.522  1.00  0.00    -0.306 NA
ATOM     16  C   UNL     1     -49.068  32.368  26.115  1.00  0.00    -0.000 C 
ATOM     17  C   UNL     1     -46.750  32.063  25.497  1.00  0.00    -0.000 C 
ATOM     18  C   UNL     1     -49.007  33.902  26.083  1.00  0.00    -0.020 C 
ATOM     19  H   UNL     1     -49.365  31.983  25.131  1.00  0.00     0.043 H 
ATOM     20  H   UNL     1     -49.859  32.076  26.817  1.00  0.00     0.043 H 
ATOM     21  C   UNL     1     -46.850  33.461  24.869  1.00  0.00    -0.020 C 
ATOM     22  H   UNL     1     -45.764  31.955  25.960  1.00  0.00     0.043 H 
ATOM     23  H   UNL     1     -46.800  31.322  24.687  1.00  0.00     0.043 H 
ATOM     24  H   UNL     1     -49.709  34.250  25.315  1.00  0.00     0.030 H 
ATOM     25  H   UNL     1     -49.361  34.310  27.038  1.00  0.00     0.030 H 
ATOM     26  H   UNL     1     -45.844  33.828  24.635  1.00  0.00     0.030 H 
ATOM     27  H   UNL     1     -47.386  33.382  23.913  1.00  0.00     0.030 H 
ATOM     28  H   UNL     1     -47.701  35.404  25.245  1.00  0.00     0.053 H 
BRANCH  15  29
ATOM     29  C   UNL     1     -47.879  30.376  26.798  1.00  0.00    -0.013 C 
ATOM     30  H   UNL     1     -48.678  30.177  27.521  1.00  0.00     0.039 H 
ATOM     31  H   UNL     1     -46.944  29.964  27.192  1.00  0.00     0.039 H 
ATOM     32  H   UNL     1     -48.139  29.829  25.885  1.00  0.00     0.039 H 
ENDBRANCH  15  29
ENDBRANCH  11  14
ENDBRANCH   1  10
BRANCH   5  33
ATOM     33  O   UNL     1     -45.848  35.894  31.064  1.00  0.00    -0.387 OA
ATOM     34  H   UNL     1     -46.064  36.553  31.757  1.00  0.00     0.211 HD
ENDBRANCH   5  33
BRANCH   3  35
ATOM     35  N   UNL     1     -44.455  39.281  28.715  1.00  0.00    -0.285 N 
ATOM     36  C   UNL     1     -45.067  39.792  27.599  1.00  0.00     0.099 A 
ATOM     37  C   UNL     1     -43.405  40.110  29.017  1.00  0.00     0.167 A 
ATOM     38  N   UNL     1     -44.509  40.914  27.196  1.00  0.00    -0.231 NA
ATOM     39  H   UNL     1     -45.916  39.311  27.126  1.00  0.00     0.104 H 
ATOM     40  C   UNL     1     -43.469  41.126  28.075  1.00  0.00     0.150 A 
ATOM     41  N   UNL     1     -42.507  39.977  30.009  1.00  0.00    -0.216 NA
ATOM     42  C   UNL     1     -42.498  42.136  28.169  1.00  0.00     0.155 A 
ATOM     43  C   UNL     1     -41.617  40.996  29.988  1.00  0.00     0.120 A 
ATOM     44  N   UNL     1     -41.561  42.043  29.138  1.00  0.00    -0.217 NA
ATOM     45  H   UNL     1     -40.847  40.972  30.754  1.00  0.00     0.106 H 
BRANCH  42  46
ATOM     46  N   UNL     1     -42.439  43.217  27.298  1.00  0.00    -0.382 N 
ATOM     47  H   UNL     1     -41.541  43.689  27.303  1.00  0.00     0.158 HD
ATOM     48  H   UNL     1     -43.272  43.789  27.343  1.00  0.00     0.158 HD
ENDBRANCH  42  46
ENDBRANCH   3  35
BRANCH   4  49
ATOM     49  O   UNL     1     -46.516  38.467  31.134  1.00  0.00    -0.386 OA
ATOM     50  H   UNL     1     -45.860  39.187  31.267  1.00  0.00     0.211 HD
ENDBRANCH   4  49
TORSDOF 7
ENDMDL
MODEL 7
REMARK VINA RESULT:      -7.3      1.986      2.896
REMARK SMILES CN1CCC(NC(=O)[C@H]2O[C@@H](n3cnc4c(N)ncnc43)[C@H](O)[C@@H]2O)CC1
REMARK SMILES IDX 9 1 10 2 11 3 22 4 24 5 7 10 6 11 8 13 5 14 2 15 3 16 27 17
REMARK SMILES IDX 4 18 26 21 1 29 25 33 12 35 13 36 21 37 14 38 15 40 20 41
REMARK SMILES IDX 16 42 19 43 18 44 17 46 23 49
REMARK H PARENT 9 6 11 7 22 8 24 9 6 12 3 19 3 20 27 22 27 23 4 24 4 25 26 26
REMARK H PARENT 26 27 5 28 1 30 1 31 1 32 25 34 13 39 19 45 17 47 17 48 23 50
REMARK Flexibility Score: inf
ROOT
ATOM      1  C   UNL     1     -46.577  39.022  28.647  1.00  0.00     0.167 C 
ATOM      2  O   UNL     1     -47.802  38.301  28.388  1.00  0.00    -0.339 OA
ATOM      3  C   UNL     1     -47.654  36.965  28.921  1.00  0.00     0.166 C 
ATOM      4  C   UNL     1     -46.158  36.768  29.199  1.00  0.00     0.128 C 
ATOM      5  C   UNL     1     -45.745  38.173  29.595  1.00  0.00     0.120 C 
ATOM      6  H   UNL     1     -46.840  39.990  29.089  1.00  0.00     0.074 H 
ATOM      7  H   UNL     1     -48.252  36.889  29.837  1.00  0.00     0.088 H 
ATOM      8  H   UNL     1     -45.616  36.451  28.300  1.00  0.00     0.068 H 
ATOM      9  H   UNL     1     -44.664  38.334  29.545  1.00  0.00     0.066 H 
ENDROOT
BRANCH   1  10
ATOM     10  C   UNL     1     -45.845  39.284  27.324  1.00  0.00     0.252 C 
ATOM     11  N   UNL     1     -44.815  40.192  27.449  1.00  0.00    -0.351 N 
ATOM     12  H   UNL     1     -44.866  40.823  28.248  1.00  0.00     0.163 HD
ATOM     13  O   UNL     1     -46.133  38.727  26.270  1.00  0.00    -0.272 OA
BRANCH  11  14
ATOM     14  C   UNL     1     -44.046  40.672  26.304  1.00  0.00     0.031 C 
ATOM     15  N   UNL     1     -44.068  43.175  27.431  1.00  0.00    -0.306 NA
ATOM     16  C   UNL     1     -42.729  42.751  27.022  1.00  0.00    -0.000 C 
ATOM     17  C   UNL     1     -45.029  43.017  26.325  1.00  0.00    -0.000 C 
ATOM     18  C   UNL     1     -42.695  41.236  26.772  1.00  0.00    -0.020 C 
ATOM     19  H   UNL     1     -42.410  43.289  26.120  1.00  0.00     0.043 H 
ATOM     20  H   UNL     1     -41.992  42.981  27.802  1.00  0.00     0.043 H 
ATOM     21  C   UNL     1     -44.815  41.731  25.514  1.00  0.00    -0.020 C 
ATOM     22  H   UNL     1     -46.041  43.004  26.744  1.00  0.00     0.043 H 
ATOM     23  H   UNL     1     -44.986  43.868  25.631  1.00  0.00     0.043 H 
ATOM     24  H   UNL     1     -41.937  41.040  26.003  1.00  0.00     0.030 H 
ATOM     25  H   UNL     1     -42.362  40.715  27.679  1.00  0.00     0.030 H 
ATOM     26  H   UNL     1     -45.785  41.348  25.175  1.00  0.00     0.030 H 
ATOM     27  H   UNL     1     -44.241  41.974  24.610  1.00  0.00     0.030 H 
ATOM     28  H   UNL     1     -43.866  39.802  25.660  1.00  0.00     0.053 H 
BRANCH  15  29
ATOM     29  C   UNL     1     -44.068  44.558  27.911  1.00  0.00    -0.013 C 
ATOM     30  H   UNL     1     -44.498  45.228  27.157  1.00  0.00     0.039 H 
ATOM     31  H   UNL     1     -43.061  44.912  28.153  1.00  0.00     0.039 H 
ATOM     32  H   UNL     1     -44.692  44.652  28.806  1.00  0.00     0.039 H 
ENDBRANCH  15  29
ENDBRANCH  11  14
ENDBRANCH   1  10
BRANCH   5  33
ATOM     33  O   UNL     1     -46.143  38.414  30.957  1.00  0.00    -0.387 OA
ATOM     34  H   UNL     1     -45.376  38.868  31.365  1.00  0.00     0.211 HD
ENDBRANCH   5  33
BRANCH   3  35
ATOM     35  N   UNL     1     -48.227  36.015  27.984  1.00  0.00    -0.285 N 
ATOM     36  C   UNL     1     -49.512  36.012  27.505  1.00  0.00     0.099 A 
ATOM     37  C   UNL     1     -47.607  34.896  27.489  1.00  0.00     0.167 A 
ATOM     38  N   UNL     1     -49.740  34.994  26.701  1.00  0.00    -0.231 NA
ATOM     39  H   UNL     1     -50.235  36.776  27.766  1.00  0.00     0.104 H 
ATOM     40  C   UNL     1     -48.556  34.289  26.681  1.00  0.00     0.150 A 
ATOM     41  N   UNL     1     -46.352  34.474  27.728  1.00  0.00    -0.216 NA
ATOM     42  C   UNL     1     -48.167  33.108  26.027  1.00  0.00     0.155 A 
ATOM     43  C   UNL     1     -46.100  33.325  27.059  1.00  0.00     0.120 A 
ATOM     44  N   UNL     1     -46.922  32.630  26.244  1.00  0.00    -0.217 NA
ATOM     45  H   UNL     1     -45.108  32.903  27.194  1.00  0.00     0.106 H 
BRANCH  42  46
ATOM     46  N   UNL     1     -49.009  32.393  25.185  1.00  0.00    -0.382 N 
ATOM     47  H   UNL     1     -49.993  32.529  25.389  1.00  0.00     0.158 HD
ATOM     48  H   UNL     1     -48.686  31.446  25.036  1.00  0.00     0.158 HD
ENDBRANCH  42  46
ENDBRANCH   3  35
BRANCH   4  49
ATOM     49  O   UNL     1     -45.873  35.860  30.264  1.00  0.00    -0.386 OA
ATOM     50  H   UNL     1     -44.921  35.982  30.477  1.00  0.00     0.211 HD
ENDBRANCH   4  49
TORSDOF 7
ENDMDL
