MODEL 1
REMARK VINA RESULT:      -9.3      0.000      0.000
REMARK SMILES CCc1cc(NCCN(C)C)c2c(F)cc(OCc3cncc(-n4cc(-c5ccn(C)n5)c5c(N)ncnc54)c3)cc2n1
REMARK SMILES IDX 3 1 4 2 5 3 12 4 13 5 14 6 15 7 16 8 41 9 42 10 43 11 2 15
REMARK SMILES IDX 1 18 6 22 7 24 8 27 9 30 10 31 11 35 17 39 18 40 19 43 20 44
REMARK SMILES IDX 40 45 21 46 23 48 22 50 24 52 25 53 39 54 26 55 33 57 38 58
REMARK SMILES IDX 34 59 37 60 36 61 27 63 28 64 32 65 29 66 30 68 31 70 35 74
REMARK H PARENT 4 12 15 13 41 14 2 16 2 17 1 19 1 20 1 21 6 23 7 25 7 26 8 28
REMARK H PARENT 8 29 10 32 10 33 10 34 11 36 11 37 11 38 18 41 18 42 20 47
REMARK H PARENT 40 49 22 51 25 56 37 62 28 67 29 69 31 71 31 72 31 73 35 75
REMARK H PARENT 35 76
REMARK Flexibility Score: inf
ROOT
ATOM      1  C   UNL     1     -46.385  31.012  21.711  1.00  0.00     0.043 A 
ATOM      2  C   UNL     1     -47.325  30.018  21.951  1.00  0.00    -0.017 A 
ATOM      3  C   UNL     1     -47.960  29.949  23.194  1.00  0.00     0.048 A 
ATOM      4  C   UNL     1     -47.651  30.951  24.158  1.00  0.00     0.059 A 
ATOM      5  C   UNL     1     -48.228  31.036  25.445  1.00  0.00     0.138 A 
ATOM      6  F   UNL     1     -49.126  30.119  25.843  1.00  0.00    -0.206 F 
ATOM      7  C   UNL     1     -47.894  32.035  26.358  1.00  0.00     0.017 A 
ATOM      8  C   UNL     1     -46.952  32.985  26.003  1.00  0.00     0.124 A 
ATOM      9  C   UNL     1     -46.368  32.914  24.736  1.00  0.00     0.007 A 
ATOM     10  C   UNL     1     -46.693  31.925  23.816  1.00  0.00     0.079 A 
ATOM     11  N   UNL     1     -46.072  31.952  22.628  1.00  0.00    -0.252 NA
ATOM     12  H   UNL     1     -47.561  29.320  21.157  1.00  0.00     0.066 H 
ATOM     13  H   UNL     1     -48.399  32.028  27.317  1.00  0.00     0.069 H 
ATOM     14  H   UNL     1     -45.628  33.660  24.452  1.00  0.00     0.069 H 
ENDROOT
BRANCH   1  15
ATOM     15  C   UNL     1     -45.698  31.110  20.374  1.00  0.00    -0.013 C 
ATOM     16  H   UNL     1     -45.698  30.131  19.882  1.00  0.00     0.033 H 
ATOM     17  H   UNL     1     -44.647  31.380  20.530  1.00  0.00     0.033 H 
BRANCH  15  18
ATOM     18  C   UNL     1     -46.360  32.147  19.480  1.00  0.00    -0.060 C 
ATOM     19  H   UNL     1     -45.668  32.506  18.711  1.00  0.00     0.023 H 
ATOM     20  H   UNL     1     -46.697  33.013  20.059  1.00  0.00     0.023 H 
ATOM     21  H   UNL     1     -47.231  31.714  18.979  1.00  0.00     0.023 H 
ENDBRANCH  15  18
ENDBRANCH   1  15
BRANCH   3  22
ATOM     22  N   UNL     1     -48.981  29.008  23.442  1.00  0.00    -0.383 N 
ATOM     23  H   UNL     1     -49.534  29.283  24.257  1.00  0.00     0.160 HD
BRANCH  22  24
ATOM     24  C   UNL     1     -48.656  27.577  23.446  1.00  0.00     0.027 C 
ATOM     25  H   UNL     1     -48.228  27.288  22.479  1.00  0.00     0.050 H 
ATOM     26  H   UNL     1     -49.568  26.997  23.618  1.00  0.00     0.050 H 
BRANCH  24  27
ATOM     27  C   UNL     1     -47.638  27.267  24.570  1.00  0.00     0.015 C 
ATOM     28  H   UNL     1     -46.802  26.727  24.105  1.00  0.00     0.045 H 
ATOM     29  H   UNL     1     -47.222  28.205  24.959  1.00  0.00     0.045 H 
BRANCH  27  30
ATOM     30  N   UNL     1     -48.179  26.438  25.667  1.00  0.00    -0.308 NA
BRANCH  30  31
ATOM     31  C   UNL     1     -47.246  25.350  25.975  1.00  0.00    -0.014 C 
ATOM     32  H   UNL     1     -47.332  25.053  27.025  1.00  0.00     0.039 H 
ATOM     33  H   UNL     1     -46.210  25.677  25.829  1.00  0.00     0.039 H 
ATOM     34  H   UNL     1     -47.421  24.466  25.350  1.00  0.00     0.039 H 
ENDBRANCH  30  31
BRANCH  30  35
ATOM     35  C   UNL     1     -48.424  27.230  26.875  1.00  0.00    -0.014 C 
ATOM     36  H   UNL     1     -49.423  27.020  27.275  1.00  0.00     0.039 H 
ATOM     37  H   UNL     1     -47.691  27.021  27.663  1.00  0.00     0.039 H 
ATOM     38  H   UNL     1     -48.407  28.301  26.658  1.00  0.00     0.039 H 
ENDBRANCH  30  35
ENDBRANCH  27  30
ENDBRANCH  24  27
ENDBRANCH  22  24
ENDBRANCH   3  22
BRANCH   8  39
ATOM     39  O   UNL     1     -46.525  34.034  26.769  1.00  0.00    -0.489 OA
BRANCH  39  40
ATOM     40  C   UNL     1     -47.493  34.959  27.276  1.00  0.00     0.115 C 
ATOM     41  H   UNL     1     -48.072  34.416  28.032  1.00  0.00     0.076 H 
ATOM     42  H   UNL     1     -48.205  35.245  26.491  1.00  0.00     0.076 H 
BRANCH  40  43
ATOM     43  C   UNL     1     -46.880  36.159  27.951  1.00  0.00     0.010 A 
ATOM     44  C   UNL     1     -46.426  36.060  29.259  1.00  0.00     0.034 A 
ATOM     45  C   UNL     1     -46.686  37.382  27.292  1.00  0.00    -0.028 A 
ATOM     46  N   UNL     1     -45.843  37.072  29.930  1.00  0.00    -0.262 NA
ATOM     47  H   UNL     1     -46.519  35.137  29.827  1.00  0.00     0.084 H 
ATOM     48  C   UNL     1     -46.089  38.463  27.955  1.00  0.00     0.066 A 
ATOM     49  H   UNL     1     -46.999  37.451  26.255  1.00  0.00     0.065 H 
ATOM     50  C   UNL     1     -45.688  38.249  29.269  1.00  0.00     0.051 A 
ATOM     51  H   UNL     1     -45.235  39.014  29.888  1.00  0.00     0.086 H 
BRANCH  48  52
ATOM     52  N   UNL     1     -45.914  39.726  27.303  1.00  0.00    -0.299 N 
ATOM     53  C   UNL     1     -44.698  40.227  26.865  1.00  0.00     0.021 A 
ATOM     54  C   UNL     1     -46.888  40.671  26.978  1.00  0.00     0.150 A 
ATOM     55  C   UNL     1     -44.890  41.454  26.266  1.00  0.00     0.033 A 
ATOM     56  H   UNL     1     -43.785  39.658  26.964  1.00  0.00     0.083 H 
ATOM     57  C   UNL     1     -46.276  41.761  26.357  1.00  0.00     0.071 A 
ATOM     58  N   UNL     1     -48.207  40.573  27.244  1.00  0.00    -0.218 NA
ATOM     59  C   UNL     1     -47.116  42.831  25.996  1.00  0.00     0.137 A 
ATOM     60  C   UNL     1     -48.903  41.638  26.832  1.00  0.00     0.120 A 
ATOM     61  N   UNL     1     -48.440  42.738  26.225  1.00  0.00    -0.219 NA
ATOM     62  H   UNL     1     -49.973  41.609  27.011  1.00  0.00     0.106 H 
BRANCH  55  63
ATOM     63  C   UNL     1     -43.848  42.272  25.634  1.00  0.00     0.095 A 
ATOM     64  C   UNL     1     -42.627  42.629  26.253  1.00  0.00    -0.016 A 
ATOM     65  N   UNL     1     -43.926  42.746  24.383  1.00  0.00    -0.173 NA
ATOM     66  C   UNL     1     -41.952  43.370  25.309  1.00  0.00     0.025 A 
ATOM     67  H   UNL     1     -42.284  42.389  27.249  1.00  0.00     0.066 H 
ATOM     68  N   UNL     1     -42.767  43.412  24.217  1.00  0.00    -0.275 N 
ATOM     69  H   UNL     1     -40.987  43.855  25.329  1.00  0.00     0.084 H 
BRANCH  68  70
ATOM     70  C   UNL     1     -42.503  44.075  22.964  1.00  0.00     0.030 C 
ATOM     71  H   UNL     1     -43.079  45.003  22.937  1.00  0.00     0.048 H 
ATOM     72  H   UNL     1     -41.432  44.284  22.905  1.00  0.00     0.048 H 
ATOM     73  H   UNL     1     -42.801  43.425  22.137  1.00  0.00     0.048 H 
ENDBRANCH  68  70
ENDBRANCH  55  63
BRANCH  59  74
ATOM     74  N   UNL     1     -46.672  44.005  25.407  1.00  0.00    -0.383 N 
ATOM     75  H   UNL     1     -46.086  43.820  24.605  1.00  0.00     0.158 HD
ATOM     76  H   UNL     1     -46.319  44.680  26.092  1.00  0.00     0.158 HD
ENDBRANCH  59  74
ENDBRANCH  48  52
ENDBRANCH  40  43
ENDBRANCH  39  40
ENDBRANCH   8  39
TORSDOF 15
ENDMDL
MODEL 2
REMARK VINA RESULT:      -8.8      2.494     12.683
REMARK SMILES CCc1cc(NCCN(C)C)c2c(F)cc(OCc3cncc(-n4cc(-c5ccn(C)n5)c5c(N)ncnc54)c3)cc2n1
REMARK SMILES IDX 3 1 4 2 5 3 12 4 13 5 14 6 15 7 16 8 41 9 42 10 43 11 2 15
REMARK SMILES IDX 1 18 6 22 7 24 8 27 9 30 10 31 11 35 17 39 18 40 19 43 20 44
REMARK SMILES IDX 40 45 21 46 23 48 22 50 24 52 25 53 39 54 26 55 33 57 38 58
REMARK SMILES IDX 34 59 37 60 36 61 27 63 28 64 32 65 29 66 30 68 31 70 35 74
REMARK H PARENT 4 12 15 13 41 14 2 16 2 17 1 19 1 20 1 21 6 23 7 25 7 26 8 28
REMARK H PARENT 8 29 10 32 10 33 10 34 11 36 11 37 11 38 18 41 18 42 20 47
REMARK H PARENT 40 49 22 51 25 56 37 62 28 67 29 69 31 71 31 72 31 73 35 75
REMARK H PARENT 35 76
REMARK Flexibility Score: inf
ROOT
ATOM      1  C   UNL     1     -43.199  41.088  28.238  1.00  0.00     0.043 A 
ATOM      2  C   UNL     1     -43.959  41.887  27.393  1.00  0.00    -0.017 A 
ATOM      3  C   UNL     1     -45.080  41.349  26.753  1.00  0.00     0.048 A 
ATOM      4  C   UNL     1     -45.431  39.999  27.044  1.00  0.00     0.059 A 
ATOM      5  C   UNL     1     -46.547  39.323  26.502  1.00  0.00     0.138 A 
ATOM      6  F   UNL     1     -47.359  39.949  25.633  1.00  0.00    -0.206 F 
ATOM      7  C   UNL     1     -46.853  37.999  26.815  1.00  0.00     0.017 A 
ATOM      8  C   UNL     1     -46.030  37.304  27.683  1.00  0.00     0.124 A 
ATOM      9  C   UNL     1     -44.918  37.956  28.225  1.00  0.00     0.007 A 
ATOM     10  C   UNL     1     -44.604  39.276  27.924  1.00  0.00     0.079 A 
ATOM     11  N   UNL     1     -43.515  39.802  28.501  1.00  0.00    -0.252 NA
ATOM     12  H   UNL     1     -43.676  42.923  27.259  1.00  0.00     0.066 H 
ATOM     13  H   UNL     1     -47.738  37.568  26.362  1.00  0.00     0.069 H 
ATOM     14  H   UNL     1     -44.269  37.414  28.910  1.00  0.00     0.069 H 
ENDROOT
BRANCH   1  15
ATOM     15  C   UNL     1     -41.995  41.652  28.945  1.00  0.00    -0.013 C 
ATOM     16  H   UNL     1     -42.187  42.689  29.242  1.00  0.00     0.033 H 
ATOM     17  H   UNL     1     -41.149  41.681  28.247  1.00  0.00     0.033 H 
BRANCH  15  18
ATOM     18  C   UNL     1     -41.619  40.819  30.160  1.00  0.00    -0.060 C 
ATOM     19  H   UNL     1     -42.493  40.305  30.574  1.00  0.00     0.023 H 
ATOM     20  H   UNL     1     -41.190  41.443  30.952  1.00  0.00     0.023 H 
ATOM     21  H   UNL     1     -40.877  40.063  29.886  1.00  0.00     0.023 H 
ENDBRANCH  15  18
ENDBRANCH   1  15
BRANCH   3  22
ATOM     22  N   UNL     1     -45.923  42.153  25.958  1.00  0.00    -0.383 N 
ATOM     23  H   UNL     1     -46.471  41.575  25.317  1.00  0.00     0.160 HD
BRANCH  22  24
ATOM     24  C   UNL     1     -45.374  43.345  25.303  1.00  0.00     0.027 C 
ATOM     25  H   UNL     1     -44.858  43.973  26.040  1.00  0.00     0.050 H 
ATOM     26  H   UNL     1     -46.188  43.923  24.855  1.00  0.00     0.050 H 
BRANCH  24  27
ATOM     27  C   UNL     1     -44.376  42.930  24.195  1.00  0.00     0.015 C 
ATOM     28  H   UNL     1     -44.365  41.832  24.170  1.00  0.00     0.045 H 
ATOM     29  H   UNL     1     -44.754  43.258  23.218  1.00  0.00     0.045 H 
BRANCH  27  30
ATOM     30  N   UNL     1     -42.995  43.409  24.412  1.00  0.00    -0.308 NA
BRANCH  30  31
ATOM     31  C   UNL     1     -42.354  43.675  23.121  1.00  0.00    -0.014 C 
ATOM     32  H   UNL     1     -41.302  43.948  23.261  1.00  0.00     0.039 H 
ATOM     33  H   UNL     1     -42.830  44.526  22.621  1.00  0.00     0.039 H 
ATOM     34  H   UNL     1     -42.400  42.810  22.450  1.00  0.00     0.039 H 
ENDBRANCH  30  31
BRANCH  30  35
ATOM     35  C   UNL     1     -42.963  44.621  25.234  1.00  0.00    -0.014 C 
ATOM     36  H   UNL     1     -43.429  44.435  26.209  1.00  0.00     0.039 H 
ATOM     37  H   UNL     1     -41.941  44.977  25.408  1.00  0.00     0.039 H 
ATOM     38  H   UNL     1     -43.540  45.428  24.774  1.00  0.00     0.039 H 
ENDBRANCH  30  35
ENDBRANCH  27  30
ENDBRANCH  24  27
ENDBRANCH  22  24
ENDBRANCH   3  22
BRANCH   8  39
ATOM     39  O   UNL     1     -46.193  36.014  28.104  1.00  0.00    -0.489 OA
BRANCH  39  40
ATOM     40  C   UNL     1     -46.045  34.953  27.155  1.00  0.00     0.115 C 
ATOM     41  H   UNL     1     -45.411  34.197  27.635  1.00  0.00     0.076 H 
ATOM     42  H   UNL     1     -45.495  35.298  26.271  1.00  0.00     0.076 H 
BRANCH  40  43
ATOM     43  C   UNL     1     -47.347  34.287  26.791  1.00  0.00     0.010 A 
ATOM     44  C   UNL     1     -48.543  34.970  26.956  1.00  0.00     0.034 A 
ATOM     45  C   UNL     1     -47.409  33.005  26.226  1.00  0.00    -0.028 A 
ATOM     46  N   UNL     1     -49.749  34.462  26.632  1.00  0.00    -0.262 NA
ATOM     47  H   UNL     1     -48.574  35.977  27.365  1.00  0.00     0.084 H 
ATOM     48  C   UNL     1     -48.642  32.436  25.880  1.00  0.00     0.066 A 
ATOM     49  H   UNL     1     -46.472  32.484  26.053  1.00  0.00     0.065 H 
ATOM     50  C   UNL     1     -49.775  33.210  26.104  1.00  0.00     0.051 A 
ATOM     51  H   UNL     1     -50.783  32.871  25.898  1.00  0.00     0.086 H 
BRANCH  48  52
ATOM     52  N   UNL     1     -48.721  31.116  25.331  1.00  0.00    -0.299 N 
ATOM     53  C   UNL     1     -48.627  29.946  26.068  1.00  0.00     0.021 A 
ATOM     54  C   UNL     1     -48.909  30.747  23.998  1.00  0.00     0.150 A 
ATOM     55  C   UNL     1     -48.763  28.858  25.232  1.00  0.00     0.033 A 
ATOM     56  H   UNL     1     -48.520  29.964  27.143  1.00  0.00     0.083 H 
ATOM     57  C   UNL     1     -48.914  29.354  23.907  1.00  0.00     0.071 A 
ATOM     58  N   UNL     1     -49.035  31.590  22.952  1.00  0.00    -0.218 NA
ATOM     59  C   UNL     1     -49.055  28.809  22.617  1.00  0.00     0.137 A 
ATOM     60  C   UNL     1     -49.188  30.955  21.785  1.00  0.00     0.120 A 
ATOM     61  N   UNL     1     -49.214  29.635  21.565  1.00  0.00    -0.219 NA
ATOM     62  H   UNL     1     -49.305  31.585  20.909  1.00  0.00     0.106 H 
BRANCH  55  63
ATOM     63  C   UNL     1     -48.769  27.451  25.650  1.00  0.00     0.095 A 
ATOM     64  C   UNL     1     -49.910  26.616  25.631  1.00  0.00    -0.016 A 
ATOM     65  N   UNL     1     -47.680  26.791  26.068  1.00  0.00    -0.173 NA
ATOM     66  C   UNL     1     -49.465  25.393  26.077  1.00  0.00     0.025 A 
ATOM     67  H   UNL     1     -50.920  26.866  25.339  1.00  0.00     0.066 H 
ATOM     68  N   UNL     1     -48.134  25.550  26.326  1.00  0.00    -0.275 N 
ATOM     69  H   UNL     1     -49.975  24.453  26.233  1.00  0.00     0.084 H 
BRANCH  68  70
ATOM     70  C   UNL     1     -47.219  24.547  26.816  1.00  0.00     0.030 C 
ATOM     71  H   UNL     1     -47.464  23.596  26.337  1.00  0.00     0.048 H 
ATOM     72  H   UNL     1     -46.203  24.856  26.562  1.00  0.00     0.048 H 
ATOM     73  H   UNL     1     -47.322  24.458  27.900  1.00  0.00     0.048 H 
ENDBRANCH  68  70
ENDBRANCH  55  63
BRANCH  59  74
ATOM     74  N   UNL     1     -49.042  27.451  22.340  1.00  0.00    -0.383 N 
ATOM     75  H   UNL     1     -49.628  27.227  21.547  1.00  0.00     0.158 HD
ATOM     76  H   UNL     1     -49.162  26.876  23.179  1.00  0.00     0.158 HD
ENDBRANCH  59  74
ENDBRANCH  48  52
ENDBRANCH  40  43
ENDBRANCH  39  40
ENDBRANCH   8  39
TORSDOF 15
ENDMDL
MODEL 3
REMARK VINA RESULT:      -8.2      2.559     12.575
REMARK SMILES CCc1cc(NCCN(C)C)c2c(F)cc(OCc3cncc(-n4cc(-c5ccn(C)n5)c5c(N)ncnc54)c3)cc2n1
REMARK SMILES IDX 3 1 4 2 5 3 12 4 13 5 14 6 15 7 16 8 41 9 42 10 43 11 2 15
REMARK SMILES IDX 1 18 6 22 7 24 8 27 9 30 10 31 11 35 17 39 18 40 19 43 20 44
REMARK SMILES IDX 40 45 21 46 23 48 22 50 24 52 25 53 39 54 26 55 33 57 38 58
REMARK SMILES IDX 34 59 37 60 36 61 27 63 28 64 32 65 29 66 30 68 31 70 35 74
REMARK H PARENT 4 12 15 13 41 14 2 16 2 17 1 19 1 20 1 21 6 23 7 25 7 26 8 28
REMARK H PARENT 8 29 10 32 10 33 10 34 11 36 11 37 11 38 18 41 18 42 20 47
REMARK H PARENT 40 49 22 51 25 56 37 62 28 67 29 69 31 71 31 72 31 73 35 75
REMARK H PARENT 35 76
REMARK Flexibility Score: inf
ROOT
ATOM      1  C   UNL     1     -46.799  43.136  25.963  1.00  0.00     0.043 A 
ATOM      2  C   UNL     1     -45.476  43.484  26.202  1.00  0.00    -0.017 A 
ATOM      3  C   UNL     1     -44.602  42.546  26.758  1.00  0.00     0.048 A 
ATOM      4  C   UNL     1     -45.100  41.235  27.007  1.00  0.00     0.059 A 
ATOM      5  C   UNL     1     -44.336  40.170  27.536  1.00  0.00     0.138 A 
ATOM      6  F   UNL     1     -43.046  40.362  27.861  1.00  0.00    -0.206 F 
ATOM      7  C   UNL     1     -44.867  38.901  27.765  1.00  0.00     0.017 A 
ATOM      8  C   UNL     1     -46.198  38.665  27.474  1.00  0.00     0.124 A 
ATOM      9  C   UNL     1     -46.970  39.708  26.954  1.00  0.00     0.007 A 
ATOM     10  C   UNL     1     -46.454  40.976  26.719  1.00  0.00     0.079 A 
ATOM     11  N   UNL     1     -47.283  41.902  26.217  1.00  0.00    -0.252 NA
ATOM     12  H   UNL     1     -45.141  44.479  25.936  1.00  0.00     0.066 H 
ATOM     13  H   UNL     1     -44.201  38.143  28.161  1.00  0.00     0.069 H 
ATOM     14  H   UNL     1     -48.018  39.526  26.722  1.00  0.00     0.069 H 
ENDROOT
BRANCH   1  15
ATOM     15  C   UNL     1     -47.754  44.130  25.355  1.00  0.00    -0.013 C 
ATOM     16  H   UNL     1     -48.036  44.882  26.100  1.00  0.00     0.033 H 
ATOM     17  H   UNL     1     -48.678  43.612  25.071  1.00  0.00     0.033 H 
BRANCH  15  18
ATOM     18  C   UNL     1     -47.155  44.803  24.130  1.00  0.00    -0.060 C 
ATOM     19  H   UNL     1     -46.285  45.411  24.398  1.00  0.00     0.023 H 
ATOM     20  H   UNL     1     -47.885  45.458  23.641  1.00  0.00     0.023 H 
ATOM     21  H   UNL     1     -46.834  44.051  23.403  1.00  0.00     0.023 H 
ENDBRANCH  15  18
ENDBRANCH   1  15
BRANCH   3  22
ATOM     22  N   UNL     1     -43.233  42.837  26.933  1.00  0.00    -0.383 N 
ATOM     23  H   UNL     1     -43.114  43.716  27.443  1.00  0.00     0.160 HD
BRANCH  22  24
ATOM     24  C   UNL     1     -42.321  42.729  25.789  1.00  0.00     0.027 C 
ATOM     25  H   UNL     1     -42.594  41.863  25.174  1.00  0.00     0.050 H 
ATOM     26  H   UNL     1     -41.296  42.598  26.151  1.00  0.00     0.050 H 
BRANCH  24  27
ATOM     27  C   UNL     1     -42.394  44.013  24.929  1.00  0.00     0.015 C 
ATOM     28  H   UNL     1     -43.129  44.677  25.405  1.00  0.00     0.045 H 
ATOM     29  H   UNL     1     -41.432  44.540  24.969  1.00  0.00     0.045 H 
BRANCH  27  30
ATOM     30  N   UNL     1     -42.808  43.783  23.529  1.00  0.00    -0.308 NA
BRANCH  30  31
ATOM     31  C   UNL     1     -43.624  44.908  23.061  1.00  0.00    -0.014 C 
ATOM     32  H   UNL     1     -43.059  45.527  22.356  1.00  0.00     0.039 H 
ATOM     33  H   UNL     1     -43.898  45.560  23.897  1.00  0.00     0.039 H 
ATOM     34  H   UNL     1     -44.544  44.574  22.566  1.00  0.00     0.039 H 
ENDBRANCH  30  31
BRANCH  30  35
ATOM     35  C   UNL     1     -41.654  43.613  22.643  1.00  0.00    -0.014 C 
ATOM     36  H   UNL     1     -40.814  44.230  22.984  1.00  0.00     0.039 H 
ATOM     37  H   UNL     1     -41.316  42.571  22.598  1.00  0.00     0.039 H 
ATOM     38  H   UNL     1     -41.880  43.950  21.627  1.00  0.00     0.039 H 
ENDBRANCH  30  35
ENDBRANCH  27  30
ENDBRANCH  24  27
ENDBRANCH  22  24
ENDBRANCH   3  22
BRANCH   8  39
ATOM     39  O   UNL     1     -46.867  37.482  27.622  1.00  0.00    -0.489 OA
BRANCH  39  40
ATOM     40  C   UNL     1     -47.061  36.648  26.475  1.00  0.00     0.115 C 
ATOM     41  H   UNL     1     -46.312  36.960  25.737  1.00  0.00     0.076 H 
ATOM     42  H   UNL     1     -48.040  36.839  26.018  1.00  0.00     0.076 H 
BRANCH  40  43
ATOM     43  C   UNL     1     -46.840  35.184  26.753  1.00  0.00     0.010 A 
ATOM     44  C   UNL     1     -46.210  34.789  27.924  1.00  0.00     0.034 A 
ATOM     45  C   UNL     1     -47.300  34.173  25.897  1.00  0.00    -0.028 A 
ATOM     46  N   UNL     1     -45.994  33.503  28.266  1.00  0.00    -0.262 NA
ATOM     47  H   UNL     1     -45.847  35.514  28.650  1.00  0.00     0.084 H 
ATOM     48  C   UNL     1     -47.092  32.822  26.210  1.00  0.00     0.066 A 
ATOM     49  H   UNL     1     -47.833  34.475  25.001  1.00  0.00     0.065 H 
ATOM     50  C   UNL     1     -46.436  32.549  27.405  1.00  0.00     0.051 A 
ATOM     51  H   UNL     1     -46.200  31.548  27.743  1.00  0.00     0.086 H 
BRANCH  48  52
ATOM     52  N   UNL     1     -47.531  31.782  25.329  1.00  0.00    -0.299 N 
ATOM     53  C   UNL     1     -48.483  30.827  25.647  1.00  0.00     0.021 A 
ATOM     54  C   UNL     1     -47.115  31.528  24.021  1.00  0.00     0.150 A 
ATOM     55  C   UNL     1     -48.681  29.991  24.567  1.00  0.00     0.033 A 
ATOM     56  H   UNL     1     -48.993  30.834  26.599  1.00  0.00     0.083 H 
ATOM     57  C   UNL     1     -47.795  30.410  23.536  1.00  0.00     0.071 A 
ATOM     58  N   UNL     1     -46.185  32.224  23.336  1.00  0.00    -0.218 NA
ATOM     59  C   UNL     1     -47.464  29.989  22.234  1.00  0.00     0.137 A 
ATOM     60  C   UNL     1     -45.976  31.745  22.105  1.00  0.00     0.120 A 
ATOM     61  N   UNL     1     -46.561  30.690  21.523  1.00  0.00    -0.219 NA
ATOM     62  H   UNL     1     -45.243  32.274  21.503  1.00  0.00     0.106 H 
BRANCH  55  63
ATOM     63  C   UNL     1     -49.649  28.889  24.503  1.00  0.00     0.095 A 
ATOM     64  C   UNL     1     -49.689  27.806  25.410  1.00  0.00    -0.016 A 
ATOM     65  N   UNL     1     -50.626  28.807  23.590  1.00  0.00    -0.173 NA
ATOM     66  C   UNL     1     -50.748  27.032  24.996  1.00  0.00     0.025 A 
ATOM     67  H   UNL     1     -49.035  27.607  26.247  1.00  0.00     0.066 H 
ATOM     68  N   UNL     1     -51.271  27.669  23.910  1.00  0.00    -0.275 N 
ATOM     69  H   UNL     1     -51.158  26.108  25.376  1.00  0.00     0.084 H 
BRANCH  68  70
ATOM     70  C   UNL     1     -52.400  27.246  23.118  1.00  0.00     0.030 C 
ATOM     71  H   UNL     1     -52.442  27.866  22.219  1.00  0.00     0.048 H 
ATOM     72  H   UNL     1     -52.262  26.195  22.855  1.00  0.00     0.048 H 
ATOM     73  H   UNL     1     -53.319  27.367  23.698  1.00  0.00     0.048 H 
ENDBRANCH  68  70
ENDBRANCH  55  63
BRANCH  59  74
ATOM     74  N   UNL     1     -48.012  28.878  21.612  1.00  0.00    -0.383 N 
ATOM     75  H   UNL     1     -48.875  28.592  22.054  1.00  0.00     0.158 HD
ATOM     76  H   UNL     1     -47.320  28.145  21.433  1.00  0.00     0.158 HD
ENDBRANCH  59  74
ENDBRANCH  48  52
ENDBRANCH  40  43
ENDBRANCH  39  40
ENDBRANCH   8  39
TORSDOF 15
ENDMDL
MODEL 4
REMARK VINA RESULT:      -8.1      1.724      2.640
REMARK SMILES CCc1cc(NCCN(C)C)c2c(F)cc(OCc3cncc(-n4cc(-c5ccn(C)n5)c5c(N)ncnc54)c3)cc2n1
REMARK SMILES IDX 3 1 4 2 5 3 12 4 13 5 14 6 15 7 16 8 41 9 42 10 43 11 2 15
REMARK SMILES IDX 1 18 6 22 7 24 8 27 9 30 10 31 11 35 17 39 18 40 19 43 20 44
REMARK SMILES IDX 40 45 21 46 23 48 22 50 24 52 25 53 39 54 26 55 33 57 38 58
REMARK SMILES IDX 34 59 37 60 36 61 27 63 28 64 32 65 29 66 30 68 31 70 35 74
REMARK H PARENT 4 12 15 13 41 14 2 16 2 17 1 19 1 20 1 21 6 23 7 25 7 26 8 28
REMARK H PARENT 8 29 10 32 10 33 10 34 11 36 11 37 11 38 18 41 18 42 20 47
REMARK H PARENT 40 49 22 51 25 56 37 62 28 67 29 69 31 71 31 72 31 73 35 75
REMARK H PARENT 35 76
REMARK Flexibility Score: inf
ROOT
ATOM      1  C   UNL     1     -48.800  30.393  21.523  1.00  0.00     0.043 A 
ATOM      2  C   UNL     1     -49.450  29.359  22.185  1.00  0.00    -0.017 A 
ATOM      3  C   UNL     1     -49.392  29.284  23.580  1.00  0.00     0.048 A 
ATOM      4  C   UNL     1     -48.703  30.320  24.276  1.00  0.00     0.059 A 
ATOM      5  C   UNL     1     -48.581  30.402  25.681  1.00  0.00     0.138 A 
ATOM      6  F   UNL     1     -49.121  29.450  26.462  1.00  0.00    -0.206 F 
ATOM      7  C   UNL     1     -47.896  31.435  26.321  1.00  0.00     0.017 A 
ATOM      8  C   UNL     1     -47.300  32.421  25.557  1.00  0.00     0.124 A 
ATOM      9  C   UNL     1     -47.407  32.354  24.165  1.00  0.00     0.007 A 
ATOM     10  C   UNL     1     -48.088  31.332  23.515  1.00  0.00     0.079 A 
ATOM     11  N   UNL     1     -48.129  31.365  22.176  1.00  0.00    -0.252 NA
ATOM     12  H   UNL     1     -50.007  28.635  21.604  1.00  0.00     0.066 H 
ATOM     13  H   UNL     1     -47.867  31.422  27.404  1.00  0.00     0.069 H 
ATOM     14  H   UNL     1     -46.939  33.129  23.560  1.00  0.00     0.069 H 
ENDROOT
BRANCH   1  15
ATOM     15  C   UNL     1     -48.861  30.497  20.022  1.00  0.00    -0.013 C 
ATOM     16  H   UNL     1     -49.883  30.728  19.704  1.00  0.00     0.033 H 
ATOM     17  H   UNL     1     -48.612  29.523  19.584  1.00  0.00     0.033 H 
BRANCH  15  18
ATOM     18  C   UNL     1     -47.897  31.549  19.495  1.00  0.00    -0.060 C 
ATOM     19  H   UNL     1     -46.973  31.570  20.083  1.00  0.00     0.023 H 
ATOM     20  H   UNL     1     -48.342  32.549  19.532  1.00  0.00     0.023 H 
ATOM     21  H   UNL     1     -47.634  31.334  18.455  1.00  0.00     0.023 H 
ENDBRANCH  15  18
ENDBRANCH   1  15
BRANCH   3  22
ATOM     22  N   UNL     1     -50.110  28.300  24.289  1.00  0.00    -0.383 N 
ATOM     23  H   UNL     1     -50.466  28.679  25.170  1.00  0.00     0.160 HD
BRANCH  22  24
ATOM     24  C   UNL     1     -49.531  26.962  24.452  1.00  0.00     0.027 C 
ATOM     25  H   UNL     1     -49.821  26.324  23.608  1.00  0.00     0.050 H 
ATOM     26  H   UNL     1     -49.902  26.514  25.379  1.00  0.00     0.050 H 
BRANCH  24  27
ATOM     27  C   UNL     1     -47.987  27.056  24.516  1.00  0.00     0.015 C 
ATOM     28  H   UNL     1     -47.594  26.445  23.693  1.00  0.00     0.045 H 
ATOM     29  H   UNL     1     -47.673  28.088  24.312  1.00  0.00     0.045 H 
BRANCH  27  30
ATOM     30  N   UNL     1     -47.402  26.570  25.783  1.00  0.00    -0.308 NA
BRANCH  30  31
ATOM     31  C   UNL     1     -48.445  25.956  26.609  1.00  0.00    -0.014 C 
ATOM     32  H   UNL     1     -48.272  26.168  27.670  1.00  0.00     0.039 H 
ATOM     33  H   UNL     1     -48.429  24.866  26.505  1.00  0.00     0.039 H 
ATOM     34  H   UNL     1     -49.447  26.315  26.345  1.00  0.00     0.039 H 
ENDBRANCH  30  31
BRANCH  30  35
ATOM     35  C   UNL     1     -46.329  25.600  25.548  1.00  0.00    -0.014 C 
ATOM     36  H   UNL     1     -45.436  25.869  26.125  1.00  0.00     0.039 H 
ATOM     37  H   UNL     1     -46.623  24.582  25.828  1.00  0.00     0.039 H 
ATOM     38  H   UNL     1     -46.019  25.598  24.500  1.00  0.00     0.039 H 
ENDBRANCH  30  35
ENDBRANCH  27  30
ENDBRANCH  24  27
ENDBRANCH  22  24
ENDBRANCH   3  22
BRANCH   8  39
ATOM     39  O   UNL     1     -46.609  33.505  26.022  1.00  0.00    -0.489 OA
BRANCH  39  40
ATOM     40  C   UNL     1     -47.249  34.785  26.023  1.00  0.00     0.115 C 
ATOM     41  H   UNL     1     -48.314  34.597  26.204  1.00  0.00     0.076 H 
ATOM     42  H   UNL     1     -47.184  35.253  25.033  1.00  0.00     0.076 H 
BRANCH  40  43
ATOM     43  C   UNL     1     -46.760  35.700  27.117  1.00  0.00     0.010 A 
ATOM     44  C   UNL     1     -46.806  35.284  28.439  1.00  0.00     0.034 A 
ATOM     45  C   UNL     1     -46.195  36.957  26.856  1.00  0.00    -0.028 A 
ATOM     46  N   UNL     1     -46.366  36.024  29.476  1.00  0.00    -0.262 NA
ATOM     47  H   UNL     1     -47.207  34.312  28.719  1.00  0.00     0.084 H 
ATOM     48  C   UNL     1     -45.731  37.763  27.905  1.00  0.00     0.066 A 
ATOM     49  H   UNL     1     -46.116  37.269  25.819  1.00  0.00     0.065 H 
ATOM     50  C   UNL     1     -45.841  37.244  29.190  1.00  0.00     0.051 A 
ATOM     51  H   UNL     1     -45.537  37.782  30.080  1.00  0.00     0.086 H 
BRANCH  48  52
ATOM     52  N   UNL     1     -45.179  39.060  27.653  1.00  0.00    -0.299 N 
ATOM     53  C   UNL     1     -45.574  39.900  26.624  1.00  0.00     0.021 A 
ATOM     54  C   UNL     1     -44.178  39.723  28.365  1.00  0.00     0.150 A 
ATOM     55  C   UNL     1     -44.854  41.076  26.683  1.00  0.00     0.033 A 
ATOM     56  H   UNL     1     -46.372  39.630  25.950  1.00  0.00     0.083 H 
ATOM     57  C   UNL     1     -43.942  40.963  27.770  1.00  0.00     0.071 A 
ATOM     58  N   UNL     1     -43.517  39.243  29.438  1.00  0.00    -0.218 NA
ATOM     59  C   UNL     1     -42.927  41.753  28.344  1.00  0.00     0.137 A 
ATOM     60  C   UNL     1     -42.598  40.092  29.908  1.00  0.00     0.120 A 
ATOM     61  N   UNL     1     -42.278  41.303  29.434  1.00  0.00    -0.219 NA
ATOM     62  H   UNL     1     -42.041  39.761  30.779  1.00  0.00     0.106 H 
BRANCH  55  63
ATOM     63  C   UNL     1     -45.024  42.230  25.793  1.00  0.00     0.095 A 
ATOM     64  C   UNL     1     -45.817  43.362  26.093  1.00  0.00    -0.016 A 
ATOM     65  N   UNL     1     -44.416  42.353  24.605  1.00  0.00    -0.173 NA
ATOM     66  C   UNL     1     -45.675  44.195  25.007  1.00  0.00     0.025 A 
ATOM     67  H   UNL     1     -46.415  43.547  26.973  1.00  0.00     0.066 H 
ATOM     68  N   UNL     1     -44.834  43.549  24.150  1.00  0.00    -0.275 N 
ATOM     69  H   UNL     1     -46.093  45.166  24.784  1.00  0.00     0.084 H 
BRANCH  68  70
ATOM     70  C   UNL     1     -44.379  44.018  22.864  1.00  0.00     0.030 C 
ATOM     71  H   UNL     1     -43.529  43.406  22.555  1.00  0.00     0.048 H 
ATOM     72  H   UNL     1     -45.203  43.922  22.152  1.00  0.00     0.048 H 
ATOM     73  H   UNL     1     -44.077  45.066  22.944  1.00  0.00     0.048 H 
ENDBRANCH  68  70
ENDBRANCH  55  63
BRANCH  59  74
ATOM     74  N   UNL     1     -42.535  42.991  27.858  1.00  0.00    -0.383 N 
ATOM     75  H   UNL     1     -43.330  43.555  27.593  1.00  0.00     0.158 HD
ATOM     76  H   UNL     1     -41.770  42.923  27.180  1.00  0.00     0.158 HD
ENDBRANCH  59  74
ENDBRANCH  48  52
ENDBRANCH  40  43
ENDBRANCH  39  40
ENDBRANCH   8  39
TORSDOF 15
ENDMDL
MODEL 5
REMARK VINA RESULT:      -8.0      1.642      2.201
REMARK SMILES CCc1cc(NCCN(C)C)c2c(F)cc(OCc3cncc(-n4cc(-c5ccn(C)n5)c5c(N)ncnc54)c3)cc2n1
REMARK SMILES IDX 3 1 4 2 5 3 12 4 13 5 14 6 15 7 16 8 41 9 42 10 43 11 2 15
REMARK SMILES IDX 1 18 6 22 7 24 8 27 9 30 10 31 11 35 17 39 18 40 19 43 20 44
REMARK SMILES IDX 40 45 21 46 23 48 22 50 24 52 25 53 39 54 26 55 33 57 38 58
REMARK SMILES IDX 34 59 37 60 36 61 27 63 28 64 32 65 29 66 30 68 31 70 35 74
REMARK H PARENT 4 12 15 13 41 14 2 16 2 17 1 19 1 20 1 21 6 23 7 25 7 26 8 28
REMARK H PARENT 8 29 10 32 10 33 10 34 11 36 11 37 11 38 18 41 18 42 20 47
REMARK H PARENT 40 49 22 51 25 56 37 62 28 67 29 69 31 71 31 72 31 73 35 75
REMARK H PARENT 35 76
REMARK Flexibility Score: inf
ROOT
ATOM      1  C   UNL     1     -50.707  31.169  23.477  1.00  0.00     0.043 A 
ATOM      2  C   UNL     1     -49.739  30.458  22.778  1.00  0.00    -0.017 A 
ATOM      3  C   UNL     1     -48.388  30.630  23.094  1.00  0.00     0.048 A 
ATOM      4  C   UNL     1     -48.061  31.498  24.175  1.00  0.00     0.059 A 
ATOM      5  C   UNL     1     -46.750  31.753  24.635  1.00  0.00     0.138 A 
ATOM      6  F   UNL     1     -45.699  31.171  24.031  1.00  0.00    -0.206 F 
ATOM      7  C   UNL     1     -46.476  32.613  25.698  1.00  0.00     0.017 A 
ATOM      8  C   UNL     1     -47.523  33.256  26.331  1.00  0.00     0.124 A 
ATOM      9  C   UNL     1     -48.827  33.019  25.887  1.00  0.00     0.007 A 
ATOM     10  C   UNL     1     -49.115  32.164  24.831  1.00  0.00     0.079 A 
ATOM     11  N   UNL     1     -50.401  32.009  24.488  1.00  0.00    -0.252 NA
ATOM     12  H   UNL     1     -50.054  29.767  22.006  1.00  0.00     0.066 H 
ATOM     13  H   UNL     1     -45.439  32.735  25.990  1.00  0.00     0.069 H 
ATOM     14  H   UNL     1     -49.655  33.523  26.384  1.00  0.00     0.069 H 
ENDROOT
BRANCH   1  15
ATOM     15  C   UNL     1     -52.168  30.989  23.158  1.00  0.00    -0.013 C 
ATOM     16  H   UNL     1     -52.759  31.754  23.674  1.00  0.00     0.033 H 
ATOM     17  H   UNL     1     -52.504  30.021  23.547  1.00  0.00     0.033 H 
BRANCH  15  18
ATOM     18  C   UNL     1     -52.425  31.049  21.660  1.00  0.00    -0.060 C 
ATOM     19  H   UNL     1     -51.994  30.182  21.149  1.00  0.00     0.023 H 
ATOM     20  H   UNL     1     -51.988  31.951  21.219  1.00  0.00     0.023 H 
ATOM     21  H   UNL     1     -53.501  31.062  21.462  1.00  0.00     0.023 H 
ENDBRANCH  15  18
ENDBRANCH   1  15
BRANCH   3  22
ATOM     22  N   UNL     1     -47.387  29.861  22.465  1.00  0.00    -0.383 N 
ATOM     23  H   UNL     1     -47.397  30.016  21.454  1.00  0.00     0.160 HD
BRANCH  22  24
ATOM     24  C   UNL     1     -47.245  28.442  22.810  1.00  0.00     0.027 C 
ATOM     25  H   UNL     1     -46.223  28.106  22.597  1.00  0.00     0.050 H 
ATOM     26  H   UNL     1     -47.945  27.850  22.212  1.00  0.00     0.050 H 
BRANCH  24  27
ATOM     27  C   UNL     1     -47.553  28.227  24.311  1.00  0.00     0.015 C 
ATOM     28  H   UNL     1     -46.591  28.234  24.840  1.00  0.00     0.045 H 
ATOM     29  H   UNL     1     -48.123  29.083  24.696  1.00  0.00     0.045 H 
BRANCH  27  30
ATOM     30  N   UNL     1     -48.245  26.957  24.613  1.00  0.00    -0.308 NA
BRANCH  30  31
ATOM     31  C   UNL     1     -47.538  26.249  25.684  1.00  0.00    -0.014 C 
ATOM     32  H   UNL     1     -47.521  25.171  25.488  1.00  0.00     0.039 H 
ATOM     33  H   UNL     1     -48.054  26.381  26.641  1.00  0.00     0.039 H 
ATOM     34  H   UNL     1     -46.504  26.595  25.797  1.00  0.00     0.039 H 
ENDBRANCH  30  31
BRANCH  30  35
ATOM     35  C   UNL     1     -49.638  27.178  25.009  1.00  0.00    -0.014 C 
ATOM     36  H   UNL     1     -50.249  27.436  24.135  1.00  0.00     0.039 H 
ATOM     37  H   UNL     1     -50.079  26.295  25.485  1.00  0.00     0.039 H 
ATOM     38  H   UNL     1     -49.726  28.025  25.696  1.00  0.00     0.039 H 
ENDBRANCH  30  35
ENDBRANCH  27  30
ENDBRANCH  24  27
ENDBRANCH  22  24
ENDBRANCH   3  22
BRANCH   8  39
ATOM     39  O   UNL     1     -47.431  34.113  27.393  1.00  0.00    -0.489 OA
BRANCH  39  40
ATOM     40  C   UNL     1     -47.937  35.445  27.252  1.00  0.00     0.115 C 
ATOM     41  H   UNL     1     -48.815  35.511  27.907  1.00  0.00     0.076 H 
ATOM     42  H   UNL     1     -48.302  35.615  26.232  1.00  0.00     0.076 H 
BRANCH  40  43
ATOM     43  C   UNL     1     -46.963  36.506  27.693  1.00  0.00     0.010 A 
ATOM     44  C   UNL     1     -46.030  36.223  28.680  1.00  0.00     0.034 A 
ATOM     45  C   UNL     1     -46.911  37.777  27.102  1.00  0.00    -0.028 A 
ATOM     46  N   UNL     1     -45.106  37.103  29.116  1.00  0.00    -0.262 NA
ATOM     47  H   UNL     1     -45.992  35.252  29.168  1.00  0.00     0.084 H 
ATOM     48  C   UNL     1     -45.970  38.725  27.529  1.00  0.00     0.066 A 
ATOM     49  H   UNL     1     -47.609  37.989  26.298  1.00  0.00     0.065 H 
ATOM     50  C   UNL     1     -45.096  38.331  28.535  1.00  0.00     0.051 A 
ATOM     51  H   UNL     1     -44.341  38.982  28.961  1.00  0.00     0.086 H 
BRANCH  48  52
ATOM     52  N   UNL     1     -45.926  40.036  26.955  1.00  0.00    -0.299 N 
ATOM     53  C   UNL     1     -44.778  40.657  26.490  1.00  0.00     0.021 A 
ATOM     54  C   UNL     1     -46.986  40.920  26.744  1.00  0.00     0.150 A 
ATOM     55  C   UNL     1     -45.095  41.901  25.985  1.00  0.00     0.033 A 
ATOM     56  H   UNL     1     -43.821  40.157  26.503  1.00  0.00     0.083 H 
ATOM     57  C   UNL     1     -46.493  42.092  26.167  1.00  0.00     0.071 A 
ATOM     58  N   UNL     1     -48.276  40.703  27.070  1.00  0.00    -0.218 NA
ATOM     59  C   UNL     1     -47.430  43.114  25.921  1.00  0.00     0.137 A 
ATOM     60  C   UNL     1     -49.072  41.733  26.766  1.00  0.00     0.120 A 
ATOM     61  N   UNL     1     -48.728  42.902  26.211  1.00  0.00    -0.219 NA
ATOM     62  H   UNL     1     -50.126  41.610  26.997  1.00  0.00     0.106 H 
BRANCH  55  63
ATOM     63  C   UNL     1     -44.154  42.837  25.357  1.00  0.00     0.095 A 
ATOM     64  C   UNL     1     -43.323  43.732  26.068  1.00  0.00    -0.016 A 
ATOM     65  N   UNL     1     -43.955  42.921  24.035  1.00  0.00    -0.173 NA
ATOM     66  C   UNL     1     -42.600  44.393  25.101  1.00  0.00     0.025 A 
ATOM     67  H   UNL     1     -43.259  43.884  27.136  1.00  0.00     0.066 H 
ATOM     68  N   UNL     1     -43.014  43.876  23.910  1.00  0.00    -0.275 N 
ATOM     69  H   UNL     1     -41.848  45.166  25.165  1.00  0.00     0.084 H 
BRANCH  68  70
ATOM     70  C   UNL     1     -42.550  44.248  22.595  1.00  0.00     0.030 C 
ATOM     71  H   UNL     1     -43.290  43.917  21.862  1.00  0.00     0.048 H 
ATOM     72  H   UNL     1     -42.438  45.335  22.565  1.00  0.00     0.048 H 
ATOM     73  H   UNL     1     -41.588  43.769  22.399  1.00  0.00     0.048 H 
ENDBRANCH  68  70
ENDBRANCH  55  63
BRANCH  59  74
ATOM     74  N   UNL     1     -47.109  44.353  25.391  1.00  0.00    -0.383 N 
ATOM     75  H   UNL     1     -47.819  44.679  24.750  1.00  0.00     0.158 HD
ATOM     76  H   UNL     1     -46.138  44.405  25.069  1.00  0.00     0.158 HD
ENDBRANCH  59  74
ENDBRANCH  48  52
ENDBRANCH  40  43
ENDBRANCH  39  40
ENDBRANCH   8  39
TORSDOF 15
ENDMDL
MODEL 6
REMARK VINA RESULT:      -7.8      2.006      3.536
REMARK SMILES CCc1cc(NCCN(C)C)c2c(F)cc(OCc3cncc(-n4cc(-c5ccn(C)n5)c5c(N)ncnc54)c3)cc2n1
REMARK SMILES IDX 3 1 4 2 5 3 12 4 13 5 14 6 15 7 16 8 41 9 42 10 43 11 2 15
REMARK SMILES IDX 1 18 6 22 7 24 8 27 9 30 10 31 11 35 17 39 18 40 19 43 20 44
REMARK SMILES IDX 40 45 21 46 23 48 22 50 24 52 25 53 39 54 26 55 33 57 38 58
REMARK SMILES IDX 34 59 37 60 36 61 27 63 28 64 32 65 29 66 30 68 31 70 35 74
REMARK H PARENT 4 12 15 13 41 14 2 16 2 17 1 19 1 20 1 21 6 23 7 25 7 26 8 28
REMARK H PARENT 8 29 10 32 10 33 10 34 11 36 11 37 11 38 18 41 18 42 20 47
REMARK H PARENT 40 49 22 51 25 56 37 62 28 67 29 69 31 71 31 72 31 73 35 75
REMARK H PARENT 35 76
REMARK Flexibility Score: inf
ROOT
ATOM      1  C   UNL     1     -50.554  31.184  23.919  1.00  0.00     0.043 A 
ATOM      2  C   UNL     1     -49.512  30.470  23.342  1.00  0.00    -0.017 A 
ATOM      3  C   UNL     1     -48.189  30.804  23.647  1.00  0.00     0.048 A 
ATOM      4  C   UNL     1     -47.965  31.844  24.594  1.00  0.00     0.059 A 
ATOM      5  C   UNL     1     -46.692  32.277  25.028  1.00  0.00     0.138 A 
ATOM      6  F   UNL     1     -45.580  31.711  24.528  1.00  0.00    -0.206 F 
ATOM      7  C   UNL     1     -46.519  33.302  25.958  1.00  0.00     0.017 A 
ATOM      8  C   UNL     1     -47.634  33.934  26.479  1.00  0.00     0.124 A 
ATOM      9  C   UNL     1     -48.901  33.521  26.058  1.00  0.00     0.007 A 
ATOM     10  C   UNL     1     -49.088  32.501  25.134  1.00  0.00     0.079 A 
ATOM     11  N   UNL     1     -50.347  32.185  24.802  1.00  0.00    -0.252 NA
ATOM     12  H   UNL     1     -49.747  29.650  22.675  1.00  0.00     0.066 H 
ATOM     13  H   UNL     1     -45.505  33.557  26.241  1.00  0.00     0.069 H 
ATOM     14  H   UNL     1     -49.781  34.015  26.466  1.00  0.00     0.069 H 
ENDROOT
BRANCH   1  15
ATOM     15  C   UNL     1     -51.986  30.832  23.612  1.00  0.00    -0.013 C 
ATOM     16  H   UNL     1     -52.269  31.239  22.635  1.00  0.00     0.033 H 
ATOM     17  H   UNL     1     -52.640  31.312  24.350  1.00  0.00     0.033 H 
BRANCH  15  18
ATOM     18  C   UNL     1     -52.211  29.329  23.641  1.00  0.00    -0.060 C 
ATOM     19  H   UNL     1     -51.795  28.883  24.550  1.00  0.00     0.023 H 
ATOM     20  H   UNL     1     -51.739  28.841  22.781  1.00  0.00     0.023 H 
ATOM     21  H   UNL     1     -53.282  29.106  23.611  1.00  0.00     0.023 H 
ENDBRANCH  15  18
ENDBRANCH   1  15
BRANCH   3  22
ATOM     22  N   UNL     1     -47.111  30.045  23.148  1.00  0.00    -0.383 N 
ATOM     23  H   UNL     1     -46.663  30.528  22.365  1.00  0.00     0.160 HD
BRANCH  22  24
ATOM     24  C   UNL     1     -47.297  28.613  22.887  1.00  0.00     0.027 C 
ATOM     25  H   UNL     1     -46.845  28.347  21.924  1.00  0.00     0.050 H 
ATOM     26  H   UNL     1     -48.366  28.385  22.852  1.00  0.00     0.050 H 
BRANCH  24  27
ATOM     27  C   UNL     1     -46.637  27.779  24.011  1.00  0.00     0.015 C 
ATOM     28  H   UNL     1     -45.894  27.127  23.532  1.00  0.00     0.045 H 
ATOM     29  H   UNL     1     -46.077  28.443  24.682  1.00  0.00     0.045 H 
BRANCH  27  30
ATOM     30  N   UNL     1     -47.579  26.935  24.774  1.00  0.00    -0.308 NA
BRANCH  30  31
ATOM     31  C   UNL     1     -46.834  26.001  25.624  1.00  0.00    -0.014 C 
ATOM     32  H   UNL     1     -47.384  25.800  26.550  1.00  0.00     0.039 H 
ATOM     33  H   UNL     1     -45.873  26.433  25.921  1.00  0.00     0.039 H 
ATOM     34  H   UNL     1     -46.644  25.046  25.121  1.00  0.00     0.039 H 
ENDBRANCH  30  31
BRANCH  30  35
ATOM     35  C   UNL     1     -48.480  27.740  25.603  1.00  0.00    -0.014 C 
ATOM     36  H   UNL     1     -47.906  28.385  26.278  1.00  0.00     0.039 H 
ATOM     37  H   UNL     1     -49.139  28.376  25.000  1.00  0.00     0.039 H 
ATOM     38  H   UNL     1     -49.099  27.107  26.246  1.00  0.00     0.039 H 
ENDBRANCH  30  35
ENDBRANCH  27  30
ENDBRANCH  24  27
ENDBRANCH  22  24
ENDBRANCH   3  22
BRANCH   8  39
ATOM     39  O   UNL     1     -47.642  34.939  27.405  1.00  0.00    -0.489 OA
BRANCH  39  40
ATOM     40  C   UNL     1     -47.842  36.286  26.963  1.00  0.00     0.115 C 
ATOM     41  H   UNL     1     -48.820  36.595  27.352  1.00  0.00     0.076 H 
ATOM     42  H   UNL     1     -47.920  36.327  25.869  1.00  0.00     0.076 H 
BRANCH  40  43
ATOM     43  C   UNL     1     -46.816  37.252  27.497  1.00  0.00     0.010 A 
ATOM     44  C   UNL     1     -45.986  36.872  28.542  1.00  0.00     0.034 A 
ATOM     45  C   UNL     1     -46.614  38.524  26.942  1.00  0.00    -0.028 A 
ATOM     46  N   UNL     1     -45.025  37.661  29.063  1.00  0.00    -0.262 NA
ATOM     47  H   UNL     1     -46.066  35.893  29.008  1.00  0.00     0.084 H 
ATOM     48  C   UNL     1     -45.630  39.379  27.457  1.00  0.00     0.066 A 
ATOM     49  H   UNL     1     -47.230  38.809  26.095  1.00  0.00     0.065 H 
ATOM     50  C   UNL     1     -44.868  38.894  28.514  1.00  0.00     0.051 A 
ATOM     51  H   UNL     1     -44.094  39.469  29.007  1.00  0.00     0.086 H 
BRANCH  48  52
ATOM     52  N   UNL     1     -45.433  40.691  26.918  1.00  0.00    -0.299 N 
ATOM     53  C   UNL     1     -46.444  41.504  26.431  1.00  0.00     0.021 A 
ATOM     54  C   UNL     1     -44.237  41.397  26.784  1.00  0.00     0.150 A 
ATOM     55  C   UNL     1     -45.911  42.704  26.008  1.00  0.00     0.033 A 
ATOM     56  H   UNL     1     -47.479  41.198  26.463  1.00  0.00     0.083 H 
ATOM     57  C   UNL     1     -44.503  42.637  26.200  1.00  0.00     0.071 A 
ATOM     58  N   UNL     1     -43.011  40.953  27.130  1.00  0.00    -0.218 NA
ATOM     59  C   UNL     1     -43.393  43.468  25.957  1.00  0.00     0.137 A 
ATOM     60  C   UNL     1     -42.043  41.839  26.873  1.00  0.00     0.120 A 
ATOM     61  N   UNL     1     -42.165  43.054  26.324  1.00  0.00    -0.219 NA
ATOM     62  H   UNL     1     -41.035  41.538  27.141  1.00  0.00     0.106 H 
BRANCH  55  63
ATOM     63  C   UNL     1     -46.673  43.841  25.477  1.00  0.00     0.095 A 
ATOM     64  C   UNL     1     -47.673  44.537  26.193  1.00  0.00    -0.016 A 
ATOM     65  N   UNL     1     -46.479  44.367  24.260  1.00  0.00    -0.173 NA
ATOM     66  C   UNL     1     -48.102  45.526  25.337  1.00  0.00     0.025 A 
ATOM     67  H   UNL     1     -48.040  44.347  27.191  1.00  0.00     0.066 H 
ATOM     68  N   UNL     1     -47.363  45.380  24.201  1.00  0.00    -0.275 N 
ATOM     69  H   UNL     1     -48.852  46.296  25.443  1.00  0.00     0.084 H 
BRANCH  68  70
ATOM     70  C   UNL     1     -47.445  46.183  23.005  1.00  0.00     0.030 C 
ATOM     71  H   UNL     1     -47.909  45.582  22.219  1.00  0.00     0.048 H 
ATOM     72  H   UNL     1     -48.051  47.065  23.224  1.00  0.00     0.048 H 
ATOM     73  H   UNL     1     -46.441  46.487  22.700  1.00  0.00     0.048 H 
ENDBRANCH  68  70
ENDBRANCH  55  63
BRANCH  59  74
ATOM     74  N   UNL     1     -43.469  44.712  25.350  1.00  0.00    -0.383 N 
ATOM     75  H   UNL     1     -44.288  44.789  24.762  1.00  0.00     0.158 HD
ATOM     76  H   UNL     1     -42.577  45.007  24.942  1.00  0.00     0.158 HD
ENDBRANCH  59  74
ENDBRANCH  48  52
ENDBRANCH  40  43
ENDBRANCH  39  40
ENDBRANCH   8  39
TORSDOF 15
ENDMDL
MODEL 7
REMARK VINA RESULT:      -7.8      2.094      3.442
REMARK SMILES CCc1cc(NCCN(C)C)c2c(F)cc(OCc3cncc(-n4cc(-c5ccn(C)n5)c5c(N)ncnc54)c3)cc2n1
REMARK SMILES IDX 3 1 4 2 5 3 12 4 13 5 14 6 15 7 16 8 41 9 42 10 43 11 2 15
REMARK SMILES IDX 1 18 6 22 7 24 8 27 9 30 10 31 11 35 17 39 18 40 19 43 20 44
REMARK SMILES IDX 40 45 21 46 23 48 22 50 24 52 25 53 39 54 26 55 33 57 38 58
REMARK SMILES IDX 34 59 37 60 36 61 27 63 28 64 32 65 29 66 30 68 31 70 35 74
REMARK H PARENT 4 12 15 13 41 14 2 16 2 17 1 19 1 20 1 21 6 23 7 25 7 26 8 28
REMARK H PARENT 8 29 10 32 10 33 10 34 11 36 11 37 11 38 18 41 18 42 20 47
REMARK H PARENT 40 49 22 51 25 56 37 62 28 67 29 69 31 71 31 72 31 73 35 75
REMARK H PARENT 35 76
REMARK Flexibility Score: inf
ROOT
ATOM      1  C   UNL     1     -50.083  29.366  23.959  1.00  0.00     0.043 A 
ATOM      2  C   UNL     1     -49.007  28.625  23.487  1.00  0.00    -0.017 A 
ATOM      3  C   UNL     1     -47.726  29.184  23.490  1.00  0.00     0.048 A 
ATOM      4  C   UNL     1     -47.569  30.490  24.037  1.00  0.00     0.059 A 
ATOM      5  C   UNL     1     -46.338  31.178  24.138  1.00  0.00     0.138 A 
ATOM      6  F   UNL     1     -45.208  30.609  23.684  1.00  0.00    -0.206 F 
ATOM      7  C   UNL     1     -46.231  32.458  24.680  1.00  0.00     0.017 A 
ATOM      8  C   UNL     1     -47.372  33.095  25.133  1.00  0.00     0.124 A 
ATOM      9  C   UNL     1     -48.598  32.431  25.037  1.00  0.00     0.007 A 
ATOM     10  C   UNL     1     -48.719  31.155  24.501  1.00  0.00     0.079 A 
ATOM     11  N   UNL     1     -49.944  30.612  24.458  1.00  0.00    -0.252 NA
ATOM     12  H   UNL     1     -49.181  27.614  23.140  1.00  0.00     0.066 H 
ATOM     13  H   UNL     1     -45.244  32.901  24.729  1.00  0.00     0.069 H 
ATOM     14  H   UNL     1     -49.499  32.929  25.394  1.00  0.00     0.069 H 
ENDROOT
BRANCH   1  15
ATOM     15  C   UNL     1     -51.470  28.777  23.974  1.00  0.00    -0.013 C 
ATOM     16  H   UNL     1     -51.845  28.734  25.002  1.00  0.00     0.033 H 
ATOM     17  H   UNL     1     -51.424  27.741  23.616  1.00  0.00     0.033 H 
BRANCH  15  18
ATOM     18  C   UNL     1     -52.425  29.573  23.099  1.00  0.00    -0.060 C 
ATOM     19  H   UNL     1     -53.389  29.062  22.999  1.00  0.00     0.023 H 
ATOM     20  H   UNL     1     -52.015  29.717  22.093  1.00  0.00     0.023 H 
ATOM     21  H   UNL     1     -52.606  30.559  23.536  1.00  0.00     0.023 H 
ENDBRANCH  15  18
ENDBRANCH   1  15
BRANCH   3  22
ATOM     22  N   UNL     1     -46.599  28.430  23.101  1.00  0.00    -0.383 N 
ATOM     23  H   UNL     1     -46.692  28.119  22.131  1.00  0.00     0.160 HD
BRANCH  22  24
ATOM     24  C   UNL     1     -46.104  27.367  23.982  1.00  0.00     0.027 C 
ATOM     25  H   UNL     1     -45.632  27.806  24.869  1.00  0.00     0.050 H 
ATOM     26  H   UNL     1     -45.362  26.766  23.447  1.00  0.00     0.050 H 
BRANCH  24  27
ATOM     27  C   UNL     1     -47.274  26.455  24.423  1.00  0.00     0.015 C 
ATOM     28  H   UNL     1     -48.140  27.107  24.600  1.00  0.00     0.045 H 
ATOM     29  H   UNL     1     -47.553  25.789  23.596  1.00  0.00     0.045 H 
BRANCH  27  30
ATOM     30  N   UNL     1     -47.010  25.681  25.654  1.00  0.00    -0.308 NA
BRANCH  30  31
ATOM     31  C   UNL     1     -46.199  26.479  26.578  1.00  0.00    -0.014 C 
ATOM     32  H   UNL     1     -46.446  27.543  26.488  1.00  0.00     0.039 H 
ATOM     33  H   UNL     1     -45.135  26.387  26.337  1.00  0.00     0.039 H 
ATOM     34  H   UNL     1     -46.345  26.178  27.622  1.00  0.00     0.039 H 
ENDBRANCH  30  31
BRANCH  30  35
ATOM     35  C   UNL     1     -48.252  25.275  26.317  1.00  0.00    -0.014 C 
ATOM     36  H   UNL     1     -48.059  25.007  27.362  1.00  0.00     0.039 H 
ATOM     37  H   UNL     1     -49.008  26.070  26.302  1.00  0.00     0.039 H 
ATOM     38  H   UNL     1     -48.677  24.381  25.851  1.00  0.00     0.039 H 
ENDBRANCH  30  35
ENDBRANCH  27  30
ENDBRANCH  24  27
ENDBRANCH  22  24
ENDBRANCH   3  22
BRANCH   8  39
ATOM     39  O   UNL     1     -47.440  34.336  25.703  1.00  0.00    -0.489 OA
BRANCH  39  40
ATOM     40  C   UNL     1     -48.340  34.546  26.797  1.00  0.00     0.115 C 
ATOM     41  H   UNL     1     -47.927  33.988  27.646  1.00  0.00     0.076 H 
ATOM     42  H   UNL     1     -49.320  34.102  26.584  1.00  0.00     0.076 H 
BRANCH  40  43
ATOM     43  C   UNL     1     -48.449  35.990  27.214  1.00  0.00     0.010 A 
ATOM     44  C   UNL     1     -49.658  36.486  27.681  1.00  0.00     0.034 A 
ATOM     45  C   UNL     1     -47.352  36.865  27.211  1.00  0.00    -0.028 A 
ATOM     46  N   UNL     1     -49.840  37.754  28.099  1.00  0.00    -0.262 NA
ATOM     47  H   UNL     1     -50.548  35.862  27.736  1.00  0.00     0.084 H 
ATOM     48  C   UNL     1     -47.498  38.194  27.631  1.00  0.00     0.066 A 
ATOM     49  H   UNL     1     -46.394  36.470  26.889  1.00  0.00     0.065 H 
ATOM     50  C   UNL     1     -48.761  38.580  28.065  1.00  0.00     0.051 A 
ATOM     51  H   UNL     1     -49.000  39.584  28.392  1.00  0.00     0.086 H 
BRANCH  48  52
ATOM     52  N   UNL     1     -46.393  39.104  27.603  1.00  0.00    -0.299 N 
ATOM     53  C   UNL     1     -46.221  40.110  26.666  1.00  0.00     0.021 A 
ATOM     54  C   UNL     1     -45.309  39.171  28.481  1.00  0.00     0.150 A 
ATOM     55  C   UNL     1     -45.065  40.810  26.942  1.00  0.00     0.033 A 
ATOM     56  H   UNL     1     -46.955  40.294  25.895  1.00  0.00     0.083 H 
ATOM     57  C   UNL     1     -44.461  40.204  28.078  1.00  0.00     0.071 A 
ATOM     58  N   UNL     1     -45.090  38.356  29.533  1.00  0.00    -0.218 NA
ATOM     59  C   UNL     1     -43.289  40.386  28.838  1.00  0.00     0.137 A 
ATOM     60  C   UNL     1     -43.961  38.644  30.189  1.00  0.00     0.120 A 
ATOM     61  N   UNL     1     -43.069  39.602  29.910  1.00  0.00    -0.219 NA
ATOM     62  H   UNL     1     -43.738  38.025  31.053  1.00  0.00     0.106 H 
BRANCH  55  63
ATOM     63  C   UNL     1     -44.573  41.979  26.203  1.00  0.00     0.095 A 
ATOM     64  C   UNL     1     -44.205  41.964  24.838  1.00  0.00    -0.016 A 
ATOM     65  N   UNL     1     -44.450  43.202  26.735  1.00  0.00    -0.173 NA
ATOM     66  C   UNL     1     -43.829  43.258  24.556  1.00  0.00     0.025 A 
ATOM     67  H   UNL     1     -44.204  41.130  24.152  1.00  0.00     0.066 H 
ATOM     68  N   UNL     1     -43.991  43.953  25.717  1.00  0.00    -0.275 N 
ATOM     69  H   UNL     1     -43.471  43.723  23.649  1.00  0.00     0.084 H 
BRANCH  68  70
ATOM     70  C   UNL     1     -43.726  45.355  25.931  1.00  0.00     0.030 C 
ATOM     71  H   UNL     1     -42.848  45.445  26.575  1.00  0.00     0.048 H 
ATOM     72  H   UNL     1     -43.543  45.823  24.961  1.00  0.00     0.048 H 
ATOM     73  H   UNL     1     -44.591  45.821  26.411  1.00  0.00     0.048 H 
ENDBRANCH  68  70
ENDBRANCH  55  63
BRANCH  59  74
ATOM     74  N   UNL     1     -42.320  41.336  28.557  1.00  0.00    -0.383 N 
ATOM     75  H   UNL     1     -42.399  41.680  27.610  1.00  0.00     0.158 HD
ATOM     76  H   UNL     1     -41.386  41.050  28.868  1.00  0.00     0.158 HD
ENDBRANCH  59  74
ENDBRANCH  48  52
ENDBRANCH  40  43
ENDBRANCH  39  40
ENDBRANCH   8  39
TORSDOF 15
ENDMDL
