MODEL 1
REMARK VINA RESULT:     -10.4      0.000      0.000
REMARK SMILES O=C(NCc1cc2[nH]c(CNCC3CC3)cc2cc1F)c1cc(=O)n2ccccc2n1
REMARK SMILES IDX 5 1 6 2 7 3 8 4 9 5 16 6 17 7 18 8 19 9 20 10 4 15 3 18 1 19
REMARK SMILES IDX 2 20 21 22 22 23 31 24 23 25 30 27 24 28 25 29 29 30 26 31
REMARK SMILES IDX 28 32 27 34 10 38 11 41 12 43 13 46 14 47 15 48
REMARK H PARENT 6 11 8 12 16 13 18 14 4 16 4 17 3 21 22 26 29 33 26 35 28 36
REMARK H PARENT 27 37 10 39 10 40 11 42 12 44 12 45 13 49 14 50 14 51 15 52
REMARK H PARENT 15 53
REMARK Flexibility Score: inf
ROOT
ATOM      1  C   UNL     1     -48.156  34.163  26.315  1.00  0.00     0.009 A 
ATOM      2  C   UNL     1     -49.014  33.053  26.224  1.00  0.00    -0.030 A 
ATOM      3  C   UNL     1     -48.583  31.945  25.481  1.00  0.00     0.046 A 
ATOM      4  N   UNL     1     -49.208  30.747  25.230  1.00  0.00    -0.357 N 
ATOM      5  C   UNL     1     -48.413  29.940  24.451  1.00  0.00     0.030 A 
ATOM      6  C   UNL     1     -47.251  30.638  24.193  1.00  0.00    -0.032 A 
ATOM      7  C   UNL     1     -47.346  31.903  24.837  1.00  0.00     0.003 A 
ATOM      8  C   UNL     1     -46.496  33.018  24.933  1.00  0.00    -0.017 A 
ATOM      9  C   UNL     1     -46.918  34.127  25.670  1.00  0.00     0.128 A 
ATOM     10  F   UNL     1     -46.093  35.181  25.756  1.00  0.00    -0.207 F 
ATOM     11  H   UNL     1     -49.982  33.054  26.718  1.00  0.00     0.065 H 
ATOM     12  H   UNL     1     -50.114  30.469  25.586  1.00  0.00     0.166 HD
ATOM     13  H   UNL     1     -46.419  30.282  23.601  1.00  0.00     0.065 H 
ATOM     14  H   UNL     1     -45.526  33.030  24.447  1.00  0.00     0.066 H 
ENDROOT
BRANCH   1  15
ATOM     15  C   UNL     1     -48.574  35.372  27.102  1.00  0.00     0.046 C 
ATOM     16  H   UNL     1     -48.877  35.074  28.113  1.00  0.00     0.054 H 
ATOM     17  H   UNL     1     -49.435  35.875  26.648  1.00  0.00     0.054 H 
BRANCH  15  18
ATOM     18  N   UNL     1     -47.505  36.337  27.181  1.00  0.00    -0.347 N 
ATOM     19  O   UNL     1     -47.150  36.114  29.441  1.00  0.00    -0.268 OA
ATOM     20  C   UNL     1     -46.932  36.685  28.379  1.00  0.00     0.270 C 
ATOM     21  H   UNL     1     -47.345  36.975  26.408  1.00  0.00     0.164 HD
BRANCH  20  22
ATOM     22  C   UNL     1     -46.004  37.868  28.251  1.00  0.00     0.136 A 
ATOM     23  C   UNL     1     -46.208  38.675  27.207  1.00  0.00     0.035 A 
ATOM     24  N   UNL     1     -45.018  38.040  29.197  1.00  0.00    -0.225 NA
ATOM     25  C   UNL     1     -45.326  39.837  27.044  1.00  0.00     0.258 A 
ATOM     26  H   UNL     1     -46.985  38.526  26.469  1.00  0.00     0.071 H 
ATOM     27  C   UNL     1     -44.240  39.070  29.049  1.00  0.00     0.140 A 
ATOM     28  O   UNL     1     -45.508  40.589  26.088  1.00  0.00    -0.269 OA
ATOM     29  N   UNL     1     -44.342  39.989  28.011  1.00  0.00    -0.268 N 
ATOM     30  C   UNL     1     -43.159  39.297  30.049  1.00  0.00    -0.019 A 
ATOM     31  C   UNL     1     -43.466  41.067  27.923  1.00  0.00     0.014 A 
ATOM     32  C   UNL     1     -42.341  40.348  29.922  1.00  0.00    -0.057 A 
ATOM     33  H   UNL     1     -43.072  38.585  30.861  1.00  0.00     0.066 H 
ATOM     34  C   UNL     1     -42.497  41.265  28.825  1.00  0.00    -0.045 A 
ATOM     35  H   UNL     1     -43.604  41.747  27.085  1.00  0.00     0.082 H 
ATOM     36  H   UNL     1     -41.548  40.530  30.641  1.00  0.00     0.062 H 
ATOM     37  H   UNL     1     -41.821  42.109  28.747  1.00  0.00     0.064 H 
ENDBRANCH  20  22
ENDBRANCH  15  18
ENDBRANCH   1  15
BRANCH   5  38
ATOM     38  C   UNL     1     -48.868  28.588  24.026  1.00  0.00     0.036 C 
ATOM     39  H   UNL     1     -49.496  28.700  23.135  1.00  0.00     0.049 H 
ATOM     40  H   UNL     1     -47.999  27.976  23.754  1.00  0.00     0.049 H 
BRANCH  38  41
ATOM     41  N   UNL     1     -49.608  27.969  25.123  1.00  0.00    -0.311 NA
ATOM     42  H   UNL     1     -50.135  28.709  25.587  1.00  0.00     0.123 HD
BRANCH  41  43
ATOM     43  C   UNL     1     -48.722  27.355  26.110  1.00  0.00    -0.002 C 
ATOM     44  H   UNL     1     -48.005  28.078  26.515  1.00  0.00     0.043 H 
ATOM     45  H   UNL     1     -49.341  27.025  26.954  1.00  0.00     0.043 H 
BRANCH  43  46
ATOM     46  C   UNL     1     -48.007  26.178  25.520  1.00  0.00    -0.029 C 
ATOM     47  C   UNL     1     -47.345  25.154  26.408  1.00  0.00    -0.049 C 
ATOM     48  C   UNL     1     -46.503  26.088  25.585  1.00  0.00    -0.049 C 
ATOM     49  H   UNL     1     -48.477  25.826  24.609  1.00  0.00     0.032 H 
ATOM     50  H   UNL     1     -47.377  25.307  27.481  1.00  0.00     0.027 H 
ATOM     51  H   UNL     1     -47.400  24.115  26.107  1.00  0.00     0.027 H 
ATOM     52  H   UNL     1     -45.951  26.862  26.106  1.00  0.00     0.027 H 
ATOM     53  H   UNL     1     -45.982  25.676  24.727  1.00  0.00     0.027 H 
ENDBRANCH  43  46
ENDBRANCH  41  43
ENDBRANCH  38  41
ENDBRANCH   5  38
TORSDOF 7
ENDMDL
MODEL 2
REMARK VINA RESULT:     -10.3      2.245      3.562
REMARK SMILES O=C(NCc1cc2[nH]c(CNCC3CC3)cc2cc1F)c1cc(=O)n2ccccc2n1
REMARK SMILES IDX 5 1 6 2 7 3 8 4 9 5 16 6 17 7 18 8 19 9 20 10 4 15 3 18 1 19
REMARK SMILES IDX 2 20 21 22 22 23 31 24 23 25 30 27 24 28 25 29 29 30 26 31
REMARK SMILES IDX 28 32 27 34 10 38 11 41 12 43 13 46 14 47 15 48
REMARK H PARENT 6 11 8 12 16 13 18 14 4 16 4 17 3 21 22 26 29 33 26 35 28 36
REMARK H PARENT 27 37 10 39 10 40 11 42 12 44 12 45 13 49 14 50 14 51 15 52
REMARK H PARENT 15 53
REMARK Flexibility Score: inf
ROOT
ATOM      1  C   UNL     1     -46.598  35.480  28.255  1.00  0.00     0.009 A 
ATOM      2  C   UNL     1     -45.753  34.596  27.562  1.00  0.00    -0.030 A 
ATOM      3  C   UNL     1     -46.307  33.837  26.521  1.00  0.00     0.046 A 
ATOM      4  N   UNL     1     -45.722  32.910  25.691  1.00  0.00    -0.357 N 
ATOM      5  C   UNL     1     -46.642  32.408  24.802  1.00  0.00     0.030 A 
ATOM      6  C   UNL     1     -47.848  33.025  25.070  1.00  0.00    -0.032 A 
ATOM      7  C   UNL     1     -47.648  33.927  26.151  1.00  0.00     0.003 A 
ATOM      8  C   UNL     1     -48.484  34.814  26.851  1.00  0.00    -0.017 A 
ATOM      9  C   UNL     1     -47.942  35.573  27.890  1.00  0.00     0.128 A 
ATOM     10  F   UNL     1     -48.752  36.418  28.546  1.00  0.00    -0.207 F 
ATOM     11  H   UNL     1     -44.703  34.506  27.824  1.00  0.00     0.065 H 
ATOM     12  H   UNL     1     -44.745  32.645  25.699  1.00  0.00     0.166 HD
ATOM     13  H   UNL     1     -48.778  32.846  24.547  1.00  0.00     0.065 H 
ATOM     14  H   UNL     1     -49.535  34.916  26.599  1.00  0.00     0.066 H 
ENDROOT
BRANCH   1  15
ATOM     15  C   UNL     1     -46.050  36.317  29.377  1.00  0.00     0.046 C 
ATOM     16  H   UNL     1     -45.451  35.693  30.051  1.00  0.00     0.054 H 
ATOM     17  H   UNL     1     -46.850  36.759  29.982  1.00  0.00     0.054 H 
BRANCH  15  18
ATOM     18  N   UNL     1     -45.243  37.400  28.872  1.00  0.00    -0.347 N 
ATOM     19  O   UNL     1     -44.498  38.117  30.924  1.00  0.00    -0.268 OA
ATOM     20  C   UNL     1     -44.590  38.267  29.712  1.00  0.00     0.270 C 
ATOM     21  H   UNL     1     -45.363  37.711  27.913  1.00  0.00     0.164 HD
BRANCH  20  22
ATOM     22  C   UNL     1     -44.002  39.447  28.977  1.00  0.00     0.136 A 
ATOM     23  C   UNL     1     -42.971  40.060  29.562  1.00  0.00     0.035 A 
ATOM     24  N   UNL     1     -44.555  39.817  27.771  1.00  0.00    -0.225 NA
ATOM     25  C   UNL     1     -42.370  41.213  28.882  1.00  0.00     0.258 A 
ATOM     26  H   UNL     1     -42.547  39.761  30.512  1.00  0.00     0.071 H 
ATOM     27  C   UNL     1     -44.020  40.838  27.173  1.00  0.00     0.140 A 
ATOM     28  O   UNL     1     -41.417  41.783  29.411  1.00  0.00    -0.269 OA
ATOM     29  N   UNL     1     -42.945  41.566  27.669  1.00  0.00    -0.268 N 
ATOM     30  C   UNL     1     -44.586  41.275  25.865  1.00  0.00    -0.019 A 
ATOM     31  C   UNL     1     -42.430  42.650  26.965  1.00  0.00     0.014 A 
ATOM     32  C   UNL     1     -44.057  42.325  25.225  1.00  0.00    -0.057 A 
ATOM     33  H   UNL     1     -45.425  40.714  25.472  1.00  0.00     0.066 H 
ATOM     34  C   UNL     1     -42.944  43.037  25.790  1.00  0.00    -0.045 A 
ATOM     35  H   UNL     1     -41.588  43.174  27.411  1.00  0.00     0.082 H 
ATOM     36  H   UNL     1     -44.456  42.657  24.272  1.00  0.00     0.062 H 
ATOM     37  H   UNL     1     -42.534  43.884  25.250  1.00  0.00     0.064 H 
ENDBRANCH  20  22
ENDBRANCH  15  18
ENDBRANCH   1  15
BRANCH   5  38
ATOM     38  C   UNL     1     -46.263  31.375  23.799  1.00  0.00     0.036 C 
ATOM     39  H   UNL     1     -46.646  31.687  22.822  1.00  0.00     0.049 H 
ATOM     40  H   UNL     1     -45.169  31.311  23.732  1.00  0.00     0.049 H 
BRANCH  38  41
ATOM     41  N   UNL     1     -46.827  30.089  24.206  1.00  0.00    -0.311 NA
ATOM     42  H   UNL     1     -46.121  29.377  24.021  1.00  0.00     0.123 HD
BRANCH  41  43
ATOM     43  C   UNL     1     -48.028  29.748  23.446  1.00  0.00    -0.002 C 
ATOM     44  H   UNL     1     -48.931  30.159  23.912  1.00  0.00     0.043 H 
ATOM     45  H   UNL     1     -47.944  30.222  22.460  1.00  0.00     0.043 H 
BRANCH  43  46
ATOM     46  C   UNL     1     -48.148  28.264  23.282  1.00  0.00    -0.029 C 
ATOM     47  C   UNL     1     -49.299  27.664  22.514  1.00  0.00    -0.049 C 
ATOM     48  C   UNL     1     -49.230  27.502  24.007  1.00  0.00    -0.049 C 
ATOM     49  H   UNL     1     -47.181  27.780  23.203  1.00  0.00     0.032 H 
ATOM     50  H   UNL     1     -50.049  28.332  22.108  1.00  0.00     0.027 H 
ATOM     51  H   UNL     1     -49.095  26.799  21.895  1.00  0.00     0.027 H 
ATOM     52  H   UNL     1     -49.947  28.049  24.608  1.00  0.00     0.027 H 
ATOM     53  H   UNL     1     -48.983  26.521  24.398  1.00  0.00     0.027 H 
ENDBRANCH  43  46
ENDBRANCH  41  43
ENDBRANCH  38  41
ENDBRANCH   5  38
TORSDOF 7
ENDMDL
MODEL 3
REMARK VINA RESULT:     -10.1      2.890     10.862
REMARK SMILES O=C(NCc1cc2[nH]c(CNCC3CC3)cc2cc1F)c1cc(=O)n2ccccc2n1
REMARK SMILES IDX 5 1 6 2 7 3 8 4 9 5 16 6 17 7 18 8 19 9 20 10 4 15 3 18 1 19
REMARK SMILES IDX 2 20 21 22 22 23 31 24 23 25 30 27 24 28 25 29 29 30 26 31
REMARK SMILES IDX 28 32 27 34 10 38 11 41 12 43 13 46 14 47 15 48
REMARK H PARENT 6 11 8 12 16 13 18 14 4 16 4 17 3 21 22 26 29 33 26 35 28 36
REMARK H PARENT 27 37 10 39 10 40 11 42 12 44 12 45 13 49 14 50 14 51 15 52
REMARK H PARENT 15 53
REMARK Flexibility Score: inf
ROOT
ATOM      1  C   UNL     1     -46.886  33.431  25.356  1.00  0.00     0.009 A 
ATOM      2  C   UNL     1     -45.912  34.208  26.008  1.00  0.00    -0.030 A 
ATOM      3  C   UNL     1     -46.333  35.065  27.035  1.00  0.00     0.046 A 
ATOM      4  N   UNL     1     -45.607  35.923  27.827  1.00  0.00    -0.357 N 
ATOM      5  C   UNL     1     -46.430  36.572  28.717  1.00  0.00     0.030 A 
ATOM      6  C   UNL     1     -47.715  36.122  28.488  1.00  0.00    -0.032 A 
ATOM      7  C   UNL     1     -47.666  35.172  27.431  1.00  0.00     0.003 A 
ATOM      8  C   UNL     1     -48.631  34.391  26.772  1.00  0.00    -0.017 A 
ATOM      9  C   UNL     1     -48.222  33.536  25.747  1.00  0.00     0.128 A 
ATOM     10  F   UNL     1     -49.155  32.794  25.131  1.00  0.00    -0.207 F 
ATOM     11  H   UNL     1     -44.865  34.144  25.725  1.00  0.00     0.065 H 
ATOM     12  H   UNL     1     -44.604  36.050  27.794  1.00  0.00     0.166 HD
ATOM     13  H   UNL     1     -48.600  36.443  29.021  1.00  0.00     0.065 H 
ATOM     14  H   UNL     1     -49.680  34.443  27.046  1.00  0.00     0.066 H 
ENDROOT
BRANCH   1  15
ATOM     15  C   UNL     1     -46.483  32.496  24.250  1.00  0.00     0.046 C 
ATOM     16  H   UNL     1     -45.394  32.511  24.127  1.00  0.00     0.054 H 
ATOM     17  H   UNL     1     -46.916  32.794  23.289  1.00  0.00     0.054 H 
BRANCH  15  18
ATOM     18  N   UNL     1     -46.922  31.150  24.522  1.00  0.00    -0.347 N 
ATOM     19  O   UNL     1     -48.091  30.881  22.562  1.00  0.00    -0.268 OA
ATOM     20  C   UNL     1     -47.767  30.480  23.673  1.00  0.00     0.270 C 
ATOM     21  H   UNL     1     -46.846  30.776  25.463  1.00  0.00     0.164 HD
BRANCH  20  22
ATOM     22  C   UNL     1     -48.273  29.187  24.266  1.00  0.00     0.136 A 
ATOM     23  C   UNL     1     -49.598  29.028  24.306  1.00  0.00     0.035 A 
ATOM     24  N   UNL     1     -47.357  28.268  24.726  1.00  0.00    -0.225 NA
ATOM     25  C   UNL     1     -50.132  27.786  24.876  1.00  0.00     0.258 A 
ATOM     26  H   UNL     1     -50.307  29.760  23.943  1.00  0.00     0.071 H 
ATOM     27  C   UNL     1     -47.834  27.170  25.229  1.00  0.00     0.140 A 
ATOM     28  O   UNL     1     -51.351  27.628  24.914  1.00  0.00    -0.269 OA
ATOM     29  N   UNL     1     -49.189  26.875  25.332  1.00  0.00    -0.268 N 
ATOM     30  C   UNL     1     -46.879  26.145  25.740  1.00  0.00    -0.019 A 
ATOM     31  C   UNL     1     -49.619  25.674  25.887  1.00  0.00     0.014 A 
ATOM     32  C   UNL     1     -47.341  25.005  26.266  1.00  0.00    -0.057 A 
ATOM     33  H   UNL     1     -45.821  26.367  25.665  1.00  0.00     0.066 H 
ATOM     34  C   UNL     1     -48.756  24.758  26.343  1.00  0.00    -0.045 A 
ATOM     35  H   UNL     1     -50.693  25.510  25.934  1.00  0.00     0.082 H 
ATOM     36  H   UNL     1     -46.661  24.247  26.642  1.00  0.00     0.062 H 
ATOM     37  H   UNL     1     -49.103  23.825  26.773  1.00  0.00     0.064 H 
ENDBRANCH  20  22
ENDBRANCH  15  18
ENDBRANCH   1  15
BRANCH   5  38
ATOM     38  C   UNL     1     -45.890  37.570  29.681  1.00  0.00     0.036 C 
ATOM     39  H   UNL     1     -46.078  37.204  30.696  1.00  0.00     0.049 H 
ATOM     40  H   UNL     1     -44.805  37.660  29.547  1.00  0.00     0.049 H 
BRANCH  38  41
ATOM     41  N   UNL     1     -46.544  38.856  29.450  1.00  0.00    -0.311 NA
ATOM     42  H   UNL     1     -47.550  38.685  29.434  1.00  0.00     0.123 HD
BRANCH  41  43
ATOM     43  C   UNL     1     -46.163  39.447  28.169  1.00  0.00    -0.002 C 
ATOM     44  H   UNL     1     -46.705  38.987  27.334  1.00  0.00     0.043 H 
ATOM     45  H   UNL     1     -46.460  40.504  28.188  1.00  0.00     0.043 H 
BRANCH  43  46
ATOM     46  C   UNL     1     -44.684  39.345  27.958  1.00  0.00    -0.029 C 
ATOM     47  C   UNL     1     -43.769  40.478  28.350  1.00  0.00    -0.049 C 
ATOM     48  C   UNL     1     -44.006  40.177  26.897  1.00  0.00    -0.049 C 
ATOM     49  H   UNL     1     -44.319  38.333  28.089  1.00  0.00     0.032 H 
ATOM     50  H   UNL     1     -44.212  41.377  28.764  1.00  0.00     0.027 H 
ATOM     51  H   UNL     1     -42.805  40.224  28.775  1.00  0.00     0.027 H 
ATOM     52  H   UNL     1     -44.596  40.883  26.325  1.00  0.00     0.027 H 
ATOM     53  H   UNL     1     -43.196  39.722  26.336  1.00  0.00     0.027 H 
ENDBRANCH  43  46
ENDBRANCH  41  43
ENDBRANCH  38  41
ENDBRANCH   5  38
TORSDOF 7
ENDMDL
MODEL 4
REMARK VINA RESULT:     -10.0      2.947      5.068
REMARK SMILES O=C(NCc1cc2[nH]c(CNCC3CC3)cc2cc1F)c1cc(=O)n2ccccc2n1
REMARK SMILES IDX 5 1 6 2 7 3 8 4 9 5 16 6 17 7 18 8 19 9 20 10 4 15 3 18 1 19
REMARK SMILES IDX 2 20 21 22 22 23 31 24 23 25 30 27 24 28 25 29 29 30 26 31
REMARK SMILES IDX 28 32 27 34 10 38 11 41 12 43 13 46 14 47 15 48
REMARK H PARENT 6 11 8 12 16 13 18 14 4 16 4 17 3 21 22 26 29 33 26 35 28 36
REMARK H PARENT 27 37 10 39 10 40 11 42 12 44 12 45 13 49 14 50 14 51 15 52
REMARK H PARENT 15 53
REMARK Flexibility Score: inf
ROOT
ATOM      1  C   UNL     1     -45.905  37.491  28.222  1.00  0.00     0.009 A 
ATOM      2  C   UNL     1     -45.294  36.331  27.715  1.00  0.00    -0.030 A 
ATOM      3  C   UNL     1     -46.107  35.383  27.079  1.00  0.00     0.046 A 
ATOM      4  N   UNL     1     -45.781  34.178  26.502  1.00  0.00    -0.357 N 
ATOM      5  C   UNL     1     -46.901  33.570  25.985  1.00  0.00     0.030 A 
ATOM      6  C   UNL     1     -47.972  34.402  26.240  1.00  0.00    -0.032 A 
ATOM      7  C   UNL     1     -47.484  35.547  26.928  1.00  0.00     0.003 A 
ATOM      8  C   UNL     1     -48.085  36.711  27.439  1.00  0.00    -0.017 A 
ATOM      9  C   UNL     1     -47.283  37.660  28.076  1.00  0.00     0.128 A 
ATOM     10  F   UNL     1     -47.871  38.767  28.553  1.00  0.00    -0.207 F 
ATOM     11  H   UNL     1     -44.223  36.175  27.814  1.00  0.00     0.065 H 
ATOM     12  H   UNL     1     -44.848  33.792  26.430  1.00  0.00     0.166 HD
ATOM     13  H   UNL     1     -49.000  34.209  25.965  1.00  0.00     0.065 H 
ATOM     14  H   UNL     1     -49.153  36.881  27.346  1.00  0.00     0.066 H 
ENDROOT
BRANCH   1  15
ATOM     15  C   UNL     1     -45.074  38.537  28.911  1.00  0.00     0.046 C 
ATOM     16  H   UNL     1     -44.180  38.077  29.347  1.00  0.00     0.054 H 
ATOM     17  H   UNL     1     -45.620  39.012  29.733  1.00  0.00     0.054 H 
BRANCH  15  18
ATOM     18  N   UNL     1     -44.685  39.579  27.994  1.00  0.00    -0.347 N 
ATOM     19  O   UNL     1     -42.957  40.389  29.274  1.00  0.00    -0.268 OA
ATOM     20  C   UNL     1     -43.694  40.478  28.299  1.00  0.00     0.270 C 
ATOM     21  H   UNL     1     -45.309  39.843  27.238  1.00  0.00     0.164 HD
BRANCH  20  22
ATOM     22  C   UNL     1     -43.615  41.609  27.303  1.00  0.00     0.136 A 
ATOM     23  C   UNL     1     -42.401  41.905  26.832  1.00  0.00     0.035 A 
ATOM     24  N   UNL     1     -44.775  42.259  26.948  1.00  0.00    -0.225 NA
ATOM     25  C   UNL     1     -42.279  42.999  25.861  1.00  0.00     0.258 A 
ATOM     26  H   UNL     1     -41.496  41.387  27.122  1.00  0.00     0.071 H 
ATOM     27  C   UNL     1     -44.663  43.227  26.089  1.00  0.00     0.140 A 
ATOM     28  O   UNL     1     -41.166  43.277  25.419  1.00  0.00    -0.269 OA
ATOM     29  N   UNL     1     -43.463  43.638  25.520  1.00  0.00    -0.268 N 
ATOM     30  C   UNL     1     -45.893  43.959  25.675  1.00  0.00    -0.019 A 
ATOM     31  C   UNL     1     -43.428  44.686  24.606  1.00  0.00     0.014 A 
ATOM     32  C   UNL     1     -45.808  44.962  24.793  1.00  0.00    -0.057 A 
ATOM     33  H   UNL     1     -46.832  43.646  26.114  1.00  0.00     0.066 H 
ATOM     34  C   UNL     1     -44.537  45.340  24.238  1.00  0.00    -0.045 A 
ATOM     35  H   UNL     1     -42.455  44.955  24.200  1.00  0.00     0.082 H 
ATOM     36  H   UNL     1     -46.693  45.507  24.478  1.00  0.00     0.062 H 
ATOM     37  H   UNL     1     -44.497  46.156  23.524  1.00  0.00     0.064 H 
ENDBRANCH  20  22
ENDBRANCH  15  18
ENDBRANCH   1  15
BRANCH   5  38
ATOM     38  C   UNL     1     -46.818  32.243  25.316  1.00  0.00     0.036 C 
ATOM     39  H   UNL     1     -46.170  31.595  25.915  1.00  0.00     0.049 H 
ATOM     40  H   UNL     1     -47.816  31.787  25.279  1.00  0.00     0.049 H 
BRANCH  38  41
ATOM     41  N   UNL     1     -46.288  32.424  23.966  1.00  0.00    -0.311 NA
ATOM     42  H   UNL     1     -46.960  32.993  23.451  1.00  0.00     0.123 HD
BRANCH  41  43
ATOM     43  C   UNL     1     -46.129  31.155  23.260  1.00  0.00    -0.002 C 
ATOM     44  H   UNL     1     -46.145  31.293  22.173  1.00  0.00     0.043 H 
ATOM     45  H   UNL     1     -45.137  30.756  23.508  1.00  0.00     0.043 H 
BRANCH  43  46
ATOM     46  C   UNL     1     -47.183  30.178  23.682  1.00  0.00    -0.029 C 
ATOM     47  C   UNL     1     -46.965  28.693  23.527  1.00  0.00    -0.049 C 
ATOM     48  C   UNL     1     -47.959  29.399  22.649  1.00  0.00    -0.049 C 
ATOM     49  H   UNL     1     -47.735  30.519  24.551  1.00  0.00     0.032 H 
ATOM     50  H   UNL     1     -46.038  28.355  23.079  1.00  0.00     0.027 H 
ATOM     51  H   UNL     1     -47.341  28.044  24.309  1.00  0.00     0.027 H 
ATOM     52  H   UNL     1     -47.711  29.521  21.602  1.00  0.00     0.027 H 
ATOM     53  H   UNL     1     -49.013  29.222  22.835  1.00  0.00     0.027 H 
ENDBRANCH  43  46
ENDBRANCH  41  43
ENDBRANCH  38  41
ENDBRANCH   5  38
TORSDOF 7
ENDMDL
MODEL 5
REMARK VINA RESULT:      -9.7      2.214      3.335
REMARK SMILES O=C(NCc1cc2[nH]c(CNCC3CC3)cc2cc1F)c1cc(=O)n2ccccc2n1
REMARK SMILES IDX 5 1 6 2 7 3 8 4 9 5 16 6 17 7 18 8 19 9 20 10 4 15 3 18 1 19
REMARK SMILES IDX 2 20 21 22 22 23 31 24 23 25 30 27 24 28 25 29 29 30 26 31
REMARK SMILES IDX 28 32 27 34 10 38 11 41 12 43 13 46 14 47 15 48
REMARK H PARENT 6 11 8 12 16 13 18 14 4 16 4 17 3 21 22 26 29 33 26 35 28 36
REMARK H PARENT 27 37 10 39 10 40 11 42 12 44 12 45 13 49 14 50 14 51 15 52
REMARK H PARENT 15 53
REMARK Flexibility Score: inf
ROOT
ATOM      1  C   UNL     1     -46.465  35.647  28.141  1.00  0.00     0.009 A 
ATOM      2  C   UNL     1     -45.627  34.794  27.403  1.00  0.00    -0.030 A 
ATOM      3  C   UNL     1     -46.212  33.981  26.422  1.00  0.00     0.046 A 
ATOM      4  N   UNL     1     -45.639  33.068  25.568  1.00  0.00    -0.357 N 
ATOM      5  C   UNL     1     -46.594  32.496  24.761  1.00  0.00     0.030 A 
ATOM      6  C   UNL     1     -47.809  33.052  25.107  1.00  0.00    -0.032 A 
ATOM      7  C   UNL     1     -47.581  33.990  26.152  1.00  0.00     0.003 A 
ATOM      8  C   UNL     1     -48.411  34.846  26.896  1.00  0.00    -0.017 A 
ATOM      9  C   UNL     1     -47.836  35.658  27.876  1.00  0.00     0.128 A 
ATOM     10  F   UNL     1     -48.641  36.473  28.574  1.00  0.00    -0.207 F 
ATOM     11  H   UNL     1     -44.556  34.767  27.587  1.00  0.00     0.065 H 
ATOM     12  H   UNL     1     -44.652  32.857  25.508  1.00  0.00     0.166 HD
ATOM     13  H   UNL     1     -48.763  32.811  24.659  1.00  0.00     0.065 H 
ATOM     14  H   UNL     1     -49.481  34.885  26.721  1.00  0.00     0.066 H 
ENDROOT
BRANCH   1  15
ATOM     15  C   UNL     1     -45.884  36.539  29.201  1.00  0.00     0.046 C 
ATOM     16  H   UNL     1     -45.064  36.023  29.714  1.00  0.00     0.054 H 
ATOM     17  H   UNL     1     -46.625  36.796  29.966  1.00  0.00     0.054 H 
BRANCH  15  18
ATOM     18  N   UNL     1     -45.401  37.774  28.635  1.00  0.00    -0.347 N 
ATOM     19  O   UNL     1     -47.286  39.002  29.103  1.00  0.00    -0.268 OA
ATOM     20  C   UNL     1     -46.190  38.894  28.565  1.00  0.00     0.270 C 
ATOM     21  H   UNL     1     -44.583  37.765  28.033  1.00  0.00     0.164 HD
BRANCH  20  22
ATOM     22  C   UNL     1     -45.565  39.988  27.734  1.00  0.00     0.136 A 
ATOM     23  C   UNL     1     -46.390  40.686  26.950  1.00  0.00     0.035 A 
ATOM     24  N   UNL     1     -44.207  40.195  27.828  1.00  0.00    -0.225 NA
ATOM     25  C   UNL     1     -45.822  41.759  26.124  1.00  0.00     0.258 A 
ATOM     26  H   UNL     1     -47.455  40.512  26.884  1.00  0.00     0.071 H 
ATOM     27  C   UNL     1     -43.709  41.144  27.095  1.00  0.00     0.140 A 
ATOM     28  O   UNL     1     -46.574  42.410  25.401  1.00  0.00    -0.269 OA
ATOM     29  N   UNL     1     -44.452  41.947  26.237  1.00  0.00    -0.268 N 
ATOM     30  C   UNL     1     -42.243  41.405  27.164  1.00  0.00    -0.019 A 
ATOM     31  C   UNL     1     -43.841  42.945  25.484  1.00  0.00     0.014 A 
ATOM     32  C   UNL     1     -41.701  42.375  26.420  1.00  0.00    -0.057 A 
ATOM     33  H   UNL     1     -41.656  40.783  27.830  1.00  0.00     0.066 H 
ATOM     34  C   UNL     1     -42.524  43.173  25.551  1.00  0.00    -0.045 A 
ATOM     35  H   UNL     1     -44.483  43.535  24.834  1.00  0.00     0.082 H 
ATOM     36  H   UNL     1     -40.635  42.580  26.457  1.00  0.00     0.062 H 
ATOM     37  H   UNL     1     -42.058  43.954  24.959  1.00  0.00     0.064 H 
ENDBRANCH  20  22
ENDBRANCH  15  18
ENDBRANCH   1  15
BRANCH   5  38
ATOM     38  C   UNL     1     -46.232  31.461  23.753  1.00  0.00     0.036 C 
ATOM     39  H   UNL     1     -46.633  31.772  22.782  1.00  0.00     0.049 H 
ATOM     40  H   UNL     1     -45.141  31.397  23.667  1.00  0.00     0.049 H 
BRANCH  38  41
ATOM     41  N   UNL     1     -46.790  30.177  24.171  1.00  0.00    -0.311 NA
ATOM     42  H   UNL     1     -46.186  29.810  24.907  1.00  0.00     0.123 HD
BRANCH  41  43
ATOM     43  C   UNL     1     -46.819  29.205  23.080  1.00  0.00    -0.002 C 
ATOM     44  H   UNL     1     -46.264  29.564  22.205  1.00  0.00     0.043 H 
ATOM     45  H   UNL     1     -46.303  28.300  23.425  1.00  0.00     0.043 H 
BRANCH  43  46
ATOM     46  C   UNL     1     -48.229  28.868  22.707  1.00  0.00    -0.029 C 
ATOM     47  C   UNL     1     -49.374  29.210  23.629  1.00  0.00    -0.049 C 
ATOM     48  C   UNL     1     -48.971  27.775  23.436  1.00  0.00    -0.049 C 
ATOM     49  H   UNL     1     -48.402  28.944  21.640  1.00  0.00     0.032 H 
ATOM     50  H   UNL     1     -49.145  29.681  24.578  1.00  0.00     0.027 H 
ATOM     51  H   UNL     1     -50.300  29.546  23.179  1.00  0.00     0.027 H 
ATOM     52  H   UNL     1     -48.485  27.272  24.264  1.00  0.00     0.027 H 
ATOM     53  H   UNL     1     -49.631  27.137  22.859  1.00  0.00     0.027 H 
ENDBRANCH  43  46
ENDBRANCH  41  43
ENDBRANCH  38  41
ENDBRANCH   5  38
TORSDOF 7
ENDMDL
MODEL 6
REMARK VINA RESULT:      -9.6      1.502      2.105
REMARK SMILES O=C(NCc1cc2[nH]c(CNCC3CC3)cc2cc1F)c1cc(=O)n2ccccc2n1
REMARK SMILES IDX 5 1 6 2 7 3 8 4 9 5 16 6 17 7 18 8 19 9 20 10 4 15 3 18 1 19
REMARK SMILES IDX 2 20 21 22 22 23 31 24 23 25 30 27 24 28 25 29 29 30 26 31
REMARK SMILES IDX 28 32 27 34 10 38 11 41 12 43 13 46 14 47 15 48
REMARK H PARENT 6 11 8 12 16 13 18 14 4 16 4 17 3 21 22 26 29 33 26 35 28 36
REMARK H PARENT 27 37 10 39 10 40 11 42 12 44 12 45 13 49 14 50 14 51 15 52
REMARK H PARENT 15 53
REMARK Flexibility Score: inf
ROOT
ATOM      1  C   UNL     1     -47.656  35.047  26.985  1.00  0.00     0.009 A 
ATOM      2  C   UNL     1     -48.718  34.192  26.641  1.00  0.00    -0.030 A 
ATOM      3  C   UNL     1     -48.437  33.087  25.826  1.00  0.00     0.046 A 
ATOM      4  N   UNL     1     -49.271  32.106  25.344  1.00  0.00    -0.357 N 
ATOM      5  C   UNL     1     -48.566  31.205  24.580  1.00  0.00     0.030 A 
ATOM      6  C   UNL     1     -47.250  31.621  24.568  1.00  0.00    -0.032 A 
ATOM      7  C   UNL     1     -47.157  32.805  25.350  1.00  0.00     0.003 A 
ATOM      8  C   UNL     1     -46.102  33.666  25.699  1.00  0.00    -0.017 A 
ATOM      9  C   UNL     1     -46.373  34.771  26.510  1.00  0.00     0.128 A 
ATOM     10  F   UNL     1     -45.354  35.580  26.837  1.00  0.00    -0.207 F 
ATOM     11  H   UNL     1     -49.726  34.383  26.999  1.00  0.00     0.065 H 
ATOM     12  H   UNL     1     -50.260  32.024  25.539  1.00  0.00     0.166 HD
ATOM     13  H   UNL     1     -46.438  31.129  24.050  1.00  0.00     0.065 H 
ATOM     14  H   UNL     1     -45.090  33.487  25.350  1.00  0.00     0.066 H 
ENDROOT
BRANCH   1  15
ATOM     15  C   UNL     1     -47.907  36.243  27.858  1.00  0.00     0.046 C 
ATOM     16  H   UNL     1     -48.092  35.921  28.890  1.00  0.00     0.054 H 
ATOM     17  H   UNL     1     -48.793  36.802  27.537  1.00  0.00     0.054 H 
BRANCH  15  18
ATOM     18  N   UNL     1     -46.790  37.154  27.828  1.00  0.00    -0.347 N 
ATOM     19  O   UNL     1     -46.258  36.951  30.054  1.00  0.00    -0.268 OA
ATOM     20  C   UNL     1     -46.102  37.493  28.967  1.00  0.00     0.270 C 
ATOM     21  H   UNL     1     -46.665  37.770  27.031  1.00  0.00     0.164 HD
BRANCH  20  22
ATOM     22  C   UNL     1     -45.131  38.626  28.737  1.00  0.00     0.136 A 
ATOM     23  C   UNL     1     -44.207  38.818  29.681  1.00  0.00     0.035 A 
ATOM     24  N   UNL     1     -45.256  39.382  27.593  1.00  0.00    -0.225 NA
ATOM     25  C   UNL     1     -43.243  39.910  29.498  1.00  0.00     0.258 A 
ATOM     26  H   UNL     1     -44.121  38.218  30.577  1.00  0.00     0.071 H 
ATOM     27  C   UNL     1     -44.403  40.347  27.436  1.00  0.00     0.140 A 
ATOM     28  O   UNL     1     -42.386  40.094  30.359  1.00  0.00    -0.269 OA
ATOM     29  N   UNL     1     -43.390  40.657  28.337  1.00  0.00    -0.268 N 
ATOM     30  C   UNL     1     -44.499  41.192  26.212  1.00  0.00    -0.019 A 
ATOM     31  C   UNL     1     -42.515  41.711  28.094  1.00  0.00     0.014 A 
ATOM     32  C   UNL     1     -43.634  42.195  26.022  1.00  0.00    -0.057 A 
ATOM     33  H   UNL     1     -45.286  40.958  25.504  1.00  0.00     0.066 H 
ATOM     34  C   UNL     1     -42.608  42.466  26.992  1.00  0.00    -0.045 A 
ATOM     35  H   UNL     1     -41.747  41.897  28.841  1.00  0.00     0.082 H 
ATOM     36  H   UNL     1     -43.689  42.822  25.137  1.00  0.00     0.062 H 
ATOM     37  H   UNL     1     -41.919  43.285  26.813  1.00  0.00     0.064 H 
ENDBRANCH  20  22
ENDBRANCH  15  18
ENDBRANCH   1  15
BRANCH   5  38
ATOM     38  C   UNL     1     -49.243  30.050  23.929  1.00  0.00     0.036 C 
ATOM     39  H   UNL     1     -50.209  29.896  24.421  1.00  0.00     0.049 H 
ATOM     40  H   UNL     1     -49.432  30.280  22.873  1.00  0.00     0.049 H 
BRANCH  38  41
ATOM     41  N   UNL     1     -48.390  28.869  24.052  1.00  0.00    -0.311 NA
ATOM     42  H   UNL     1     -48.625  28.245  23.280  1.00  0.00     0.123 HD
BRANCH  41  43
ATOM     43  C   UNL     1     -48.616  28.152  25.304  1.00  0.00    -0.002 C 
ATOM     44  H   UNL     1     -48.068  28.608  26.136  1.00  0.00     0.043 H 
ATOM     45  H   UNL     1     -49.683  28.238  25.550  1.00  0.00     0.043 H 
BRANCH  43  46
ATOM     46  C   UNL     1     -48.250  26.707  25.161  1.00  0.00    -0.029 C 
ATOM     47  C   UNL     1     -48.170  25.808  26.369  1.00  0.00    -0.049 C 
ATOM     48  C   UNL     1     -46.913  26.206  25.649  1.00  0.00    -0.049 C 
ATOM     49  H   UNL     1     -48.622  26.278  24.237  1.00  0.00     0.032 H 
ATOM     50  H   UNL     1     -48.358  26.241  27.345  1.00  0.00     0.027 H 
ATOM     51  H   UNL     1     -48.520  24.788  26.263  1.00  0.00     0.027 H 
ATOM     52  H   UNL     1     -46.243  26.897  26.147  1.00  0.00     0.027 H 
ATOM     53  H   UNL     1     -46.407  25.451  25.057  1.00  0.00     0.027 H 
ENDBRANCH  43  46
ENDBRANCH  41  43
ENDBRANCH  38  41
ENDBRANCH   5  38
TORSDOF 7
ENDMDL
MODEL 7
REMARK VINA RESULT:      -9.6      4.675      8.732
REMARK SMILES O=C(NCc1cc2[nH]c(CNCC3CC3)cc2cc1F)c1cc(=O)n2ccccc2n1
REMARK SMILES IDX 5 1 6 2 7 3 8 4 9 5 16 6 17 7 18 8 19 9 20 10 4 15 3 18 1 19
REMARK SMILES IDX 2 20 21 22 22 23 31 24 23 25 30 27 24 28 25 29 29 30 26 31
REMARK SMILES IDX 28 32 27 34 10 38 11 41 12 43 13 46 14 47 15 48
REMARK H PARENT 6 11 8 12 16 13 18 14 4 16 4 17 3 21 22 26 29 33 26 35 28 36
REMARK H PARENT 27 37 10 39 10 40 11 42 12 44 12 45 13 49 14 50 14 51 15 52
REMARK H PARENT 15 53
REMARK Flexibility Score: inf
ROOT
ATOM      1  C   UNL     1     -42.871  41.076  28.339  1.00  0.00     0.009 A 
ATOM      2  C   UNL     1     -43.979  40.480  27.712  1.00  0.00    -0.030 A 
ATOM      3  C   UNL     1     -44.585  39.387  28.346  1.00  0.00     0.046 A 
ATOM      4  N   UNL     1     -45.665  38.627  27.964  1.00  0.00    -0.357 N 
ATOM      5  C   UNL     1     -45.924  37.650  28.897  1.00  0.00     0.030 A 
ATOM      6  C   UNL     1     -44.986  37.786  29.901  1.00  0.00    -0.032 A 
ATOM      7  C   UNL     1     -44.137  38.877  29.565  1.00  0.00     0.003 A 
ATOM      8  C   UNL     1     -43.028  39.480  30.183  1.00  0.00    -0.017 A 
ATOM      9  C   UNL     1     -42.417  40.568  29.557  1.00  0.00     0.128 A 
ATOM     10  F   UNL     1     -41.362  41.135  30.163  1.00  0.00    -0.207 F 
ATOM     11  H   UNL     1     -44.354  40.857  26.764  1.00  0.00     0.065 H 
ATOM     12  H   UNL     1     -46.222  38.770  27.131  1.00  0.00     0.166 HD
ATOM     13  H   UNL     1     -44.912  37.165  30.783  1.00  0.00     0.065 H 
ATOM     14  H   UNL     1     -42.645  39.115  31.130  1.00  0.00     0.066 H 
ENDROOT
BRANCH   1  15
ATOM     15  C   UNL     1     -42.188  42.252  27.698  1.00  0.00     0.046 C 
ATOM     16  H   UNL     1     -41.165  41.980  27.414  1.00  0.00     0.054 H 
ATOM     17  H   UNL     1     -42.112  43.101  28.386  1.00  0.00     0.054 H 
BRANCH  15  18
ATOM     18  N   UNL     1     -42.911  42.703  26.535  1.00  0.00    -0.347 N 
ATOM     19  O   UNL     1     -41.060  43.377  25.352  1.00  0.00    -0.268 OA
ATOM     20  C   UNL     1     -42.277  43.309  25.479  1.00  0.00     0.270 C 
ATOM     21  H   UNL     1     -43.916  42.837  26.588  1.00  0.00     0.164 HD
BRANCH  20  22
ATOM     22  C   UNL     1     -43.248  43.901  24.487  1.00  0.00     0.136 A 
ATOM     23  C   UNL     1     -44.532  43.922  24.851  1.00  0.00     0.035 A 
ATOM     24  N   UNL     1     -42.763  44.371  23.287  1.00  0.00    -0.225 NA
ATOM     25  C   UNL     1     -45.511  44.488  23.915  1.00  0.00     0.258 A 
ATOM     26  H   UNL     1     -44.901  43.546  25.796  1.00  0.00     0.071 H 
ATOM     27  C   UNL     1     -43.632  44.871  22.462  1.00  0.00     0.140 A 
ATOM     28  O   UNL     1     -46.696  44.515  24.241  1.00  0.00    -0.269 OA
ATOM     29  N   UNL     1     -44.997  44.956  22.713  1.00  0.00    -0.268 N 
ATOM     30  C   UNL     1     -43.152  45.393  21.151  1.00  0.00    -0.019 A 
ATOM     31  C   UNL     1     -45.863  45.506  21.773  1.00  0.00     0.014 A 
ATOM     32  C   UNL     1     -44.024  45.912  20.279  1.00  0.00    -0.057 A 
ATOM     33  H   UNL     1     -42.090  45.330  20.946  1.00  0.00     0.066 H 
ATOM     34  C   UNL     1     -45.425  45.972  20.598  1.00  0.00    -0.045 A 
ATOM     35  H   UNL     1     -46.918  45.541  22.036  1.00  0.00     0.082 H 
ATOM     36  H   UNL     1     -43.694  46.298  19.319  1.00  0.00     0.062 H 
ATOM     37  H   UNL     1     -46.110  46.400  19.873  1.00  0.00     0.064 H 
ENDBRANCH  20  22
ENDBRANCH  15  18
ENDBRANCH   1  15
BRANCH   5  38
ATOM     38  C   UNL     1     -47.038  36.682  28.711  1.00  0.00     0.036 C 
ATOM     39  H   UNL     1     -47.892  37.022  29.307  1.00  0.00     0.049 H 
ATOM     40  H   UNL     1     -47.342  36.667  27.657  1.00  0.00     0.049 H 
BRANCH  38  41
ATOM     41  N   UNL     1     -46.590  35.356  29.134  1.00  0.00    -0.311 NA
ATOM     42  H   UNL     1     -45.882  35.492  29.855  1.00  0.00     0.123 HD
BRANCH  41  43
ATOM     43  C   UNL     1     -45.985  34.603  28.038  1.00  0.00    -0.002 C 
ATOM     44  H   UNL     1     -44.908  34.794  27.962  1.00  0.00     0.043 H 
ATOM     45  H   UNL     1     -46.095  33.535  28.266  1.00  0.00     0.043 H 
BRANCH  43  46
ATOM     46  C   UNL     1     -46.667  34.912  26.741  1.00  0.00    -0.029 C 
ATOM     47  C   UNL     1     -47.788  34.041  26.232  1.00  0.00    -0.049 C 
ATOM     48  C   UNL     1     -46.456  34.028  25.537  1.00  0.00    -0.049 C 
ATOM     49  H   UNL     1     -46.733  35.978  26.555  1.00  0.00     0.032 H 
ATOM     50  H   UNL     1     -48.068  33.171  26.815  1.00  0.00     0.027 H 
ATOM     51  H   UNL     1     -48.620  34.528  25.736  1.00  0.00     0.027 H 
ATOM     52  H   UNL     1     -45.843  33.140  25.638  1.00  0.00     0.027 H 
ATOM     53  H   UNL     1     -46.388  34.503  24.564  1.00  0.00     0.027 H 
ENDBRANCH  43  46
ENDBRANCH  41  43
ENDBRANCH  38  41
ENDBRANCH   5  38
TORSDOF 7
ENDMDL
