MODEL 1
REMARK VINA RESULT:     -11.0      0.000      0.000
REMARK SMILES c1cc(-c2cn(Cc3ccc4cc(CNCC5CCC5)[nH]c4c3)nn2)c2cncn2c1
REMARK SMILES IDX 8 1 9 2 10 3 11 4 12 5 13 6 21 7 22 8 23 9 7 15 6 18 4 19
REMARK SMILES IDX 5 20 25 21 24 23 3 24 1 25 2 26 31 27 30 30 26 32 29 33
REMARK SMILES IDX 27 34 28 35 14 38 15 41 16 43 17 46 18 47 20 48 19 50
REMARK H PARENT 9 10 10 11 12 12 21 13 23 14 7 16 7 17 5 22 1 28 2 29 31 31
REMARK H PARENT 29 36 27 37 14 39 14 40 15 42 16 44 16 45 17 49 18 51 18 52
REMARK H PARENT 20 53 20 54 19 55 19 56
REMARK Flexibility Score: inf
ROOT
ATOM      1  C   UNL     1     -47.936  34.908  26.612  1.00  0.00    -0.024 A 
ATOM      2  C   UNL     1     -46.676  34.894  25.998  1.00  0.00    -0.056 A 
ATOM      3  C   UNL     1     -46.245  33.789  25.254  1.00  0.00    -0.052 A 
ATOM      4  C   UNL     1     -47.093  32.674  25.119  1.00  0.00    -0.000 A 
ATOM      5  C   UNL     1     -46.984  31.423  24.452  1.00  0.00    -0.032 A 
ATOM      6  C   UNL     1     -48.155  30.722  24.662  1.00  0.00     0.030 A 
ATOM      7  N   UNL     1     -48.962  31.508  25.451  1.00  0.00    -0.357 N 
ATOM      8  C   UNL     1     -48.339  32.702  25.738  1.00  0.00     0.046 A 
ATOM      9  C   UNL     1     -48.788  33.794  26.491  1.00  0.00    -0.033 A 
ATOM     10  H   UNL     1     -46.007  35.748  26.088  1.00  0.00     0.063 H 
ATOM     11  H   UNL     1     -45.267  33.794  24.782  1.00  0.00     0.063 H 
ATOM     12  H   UNL     1     -46.139  31.076  23.872  1.00  0.00     0.065 H 
ATOM     13  H   UNL     1     -49.886  31.253  25.772  1.00  0.00     0.166 HD
ATOM     14  H   UNL     1     -49.769  33.783  26.957  1.00  0.00     0.065 H 
ENDROOT
BRANCH   1  15
ATOM     15  C   UNL     1     -48.384  36.114  27.404  1.00  0.00     0.068 C 
ATOM     16  H   UNL     1     -49.119  36.691  26.830  1.00  0.00     0.057 H 
ATOM     17  H   UNL     1     -48.855  35.824  28.351  1.00  0.00     0.057 H 
BRANCH  15  18
ATOM     18  N   UNL     1     -47.268  36.980  27.738  1.00  0.00    -0.247 N 
ATOM     19  C   UNL     1     -45.739  38.499  27.794  1.00  0.00     0.115 A 
ATOM     20  C   UNL     1     -46.807  38.062  27.045  1.00  0.00     0.054 A 
ATOM     21  N   UNL     1     -45.569  37.667  28.870  1.00  0.00    -0.130 NA
ATOM     22  H   UNL     1     -47.262  38.402  26.127  1.00  0.00     0.086 H 
ATOM     23  N   UNL     1     -46.513  36.735  28.825  1.00  0.00    -0.066 NA
BRANCH  19  24
ATOM     24  C   UNL     1     -44.865  39.613  27.552  1.00  0.00     0.029 A 
ATOM     25  C   UNL     1     -44.158  41.477  26.073  1.00  0.00    -0.045 A 
ATOM     26  C   UNL     1     -44.977  40.318  26.395  1.00  0.00    -0.049 A 
ATOM     27  C   UNL     1     -43.237  41.880  26.959  1.00  0.00     0.010 A 
ATOM     28  H   UNL     1     -44.316  41.988  25.129  1.00  0.00     0.064 H 
ATOM     29  H   UNL     1     -45.721  40.042  25.649  1.00  0.00     0.063 H 
ATOM     30  N   UNL     1     -43.089  41.170  28.143  1.00  0.00    -0.306 N 
ATOM     31  H   UNL     1     -42.589  42.733  26.796  1.00  0.00     0.082 H 
ATOM     32  C   UNL     1     -43.847  40.055  28.475  1.00  0.00     0.074 A 
ATOM     33  C   UNL     1     -42.215  41.378  29.180  1.00  0.00     0.099 A 
ATOM     34  C   UNL     1     -43.340  39.640  29.689  1.00  0.00     0.053 A 
ATOM     35  N   UNL     1     -42.342  40.475  30.127  1.00  0.00    -0.244 NA
ATOM     36  H   UNL     1     -41.511  42.198  29.185  1.00  0.00     0.105 H 
ATOM     37  H   UNL     1     -43.634  38.781  30.279  1.00  0.00     0.086 H 
ENDBRANCH  19  24
ENDBRANCH  15  18
ENDBRANCH   1  15
BRANCH   6  38
ATOM     38  C   UNL     1     -48.583  29.373  24.200  1.00  0.00     0.036 C 
ATOM     39  H   UNL     1     -48.811  29.419  23.128  1.00  0.00     0.049 H 
ATOM     40  H   UNL     1     -49.516  29.070  24.691  1.00  0.00     0.049 H 
BRANCH  38  41
ATOM     41  N   UNL     1     -47.534  28.376  24.397  1.00  0.00    -0.311 NA
ATOM     42  H   UNL     1     -46.926  28.672  25.157  1.00  0.00     0.123 HD
BRANCH  41  43
ATOM     43  C   UNL     1     -48.072  27.048  24.700  1.00  0.00    -0.002 C 
ATOM     44  H   UNL     1     -49.133  26.992  24.432  1.00  0.00     0.043 H 
ATOM     45  H   UNL     1     -47.540  26.285  24.121  1.00  0.00     0.043 H 
BRANCH  43  46
ATOM     46  C   UNL     1     -47.930  26.768  26.199  1.00  0.00    -0.029 C 
ATOM     47  C   UNL     1     -46.621  26.076  26.669  1.00  0.00    -0.049 C 
ATOM     48  C   UNL     1     -48.681  25.509  26.709  1.00  0.00    -0.049 C 
ATOM     49  H   UNL     1     -48.179  27.663  26.784  1.00  0.00     0.032 H 
ATOM     50  C   UNL     1     -47.360  24.728  26.572  1.00  0.00    -0.053 C 
ATOM     51  H   UNL     1     -45.749  26.181  26.019  1.00  0.00     0.027 H 
ATOM     52  H   UNL     1     -46.331  26.343  27.693  1.00  0.00     0.027 H 
ATOM     53  H   UNL     1     -49.509  25.150  26.091  1.00  0.00     0.027 H 
ATOM     54  H   UNL     1     -49.029  25.598  27.745  1.00  0.00     0.027 H 
ATOM     55  H   UNL     1     -47.147  24.013  27.370  1.00  0.00     0.027 H 
ATOM     56  H   UNL     1     -47.241  24.227  25.605  1.00  0.00     0.027 H 
ENDBRANCH  43  46
ENDBRANCH  41  43
ENDBRANCH  38  41
ENDBRANCH   6  38
TORSDOF 7
ENDMDL
MODEL 2
REMARK VINA RESULT:     -10.5      1.328      2.164
REMARK SMILES c1cc(-c2cn(Cc3ccc4cc(CNCC5CCC5)[nH]c4c3)nn2)c2cncn2c1
REMARK SMILES IDX 8 1 9 2 10 3 11 4 12 5 13 6 21 7 22 8 23 9 7 15 6 18 4 19
REMARK SMILES IDX 5 20 25 21 24 23 3 24 1 25 2 26 31 27 30 30 26 32 29 33
REMARK SMILES IDX 27 34 28 35 14 38 15 41 16 43 17 46 18 47 20 48 19 50
REMARK H PARENT 9 10 10 11 12 12 21 13 23 14 7 16 7 17 5 22 1 28 2 29 31 31
REMARK H PARENT 29 36 27 37 14 39 14 40 15 42 16 44 16 45 17 49 18 51 18 52
REMARK H PARENT 20 53 20 54 19 55 19 56
REMARK Flexibility Score: inf
ROOT
ATOM      1  C   UNL     1     -47.779  35.948  27.107  1.00  0.00    -0.024 A 
ATOM      2  C   UNL     1     -46.467  35.716  26.670  1.00  0.00    -0.056 A 
ATOM      3  C   UNL     1     -46.103  34.494  26.090  1.00  0.00    -0.052 A 
ATOM      4  C   UNL     1     -47.071  33.484  25.942  1.00  0.00    -0.000 A 
ATOM      5  C   UNL     1     -47.052  32.166  25.409  1.00  0.00    -0.032 A 
ATOM      6  C   UNL     1     -48.324  31.640  25.521  1.00  0.00     0.030 A 
ATOM      7  N   UNL     1     -49.106  32.596  26.124  1.00  0.00    -0.357 N 
ATOM      8  C   UNL     1     -48.367  33.728  26.385  1.00  0.00     0.046 A 
ATOM      9  C   UNL     1     -48.752  34.940  26.973  1.00  0.00    -0.033 A 
ATOM     10  H   UNL     1     -45.705  36.486  26.773  1.00  0.00     0.063 H 
ATOM     11  H   UNL     1     -45.083  34.330  25.753  1.00  0.00     0.063 H 
ATOM     12  H   UNL     1     -46.198  31.660  24.979  1.00  0.00     0.065 H 
ATOM     13  H   UNL     1     -50.088  32.492  26.341  1.00  0.00     0.166 HD
ATOM     14  H   UNL     1     -49.775  35.098  27.303  1.00  0.00     0.065 H 
ENDROOT
BRANCH   1  15
ATOM     15  C   UNL     1     -48.152  37.276  27.723  1.00  0.00     0.068 C 
ATOM     16  H   UNL     1     -49.098  37.635  27.302  1.00  0.00     0.057 H 
ATOM     17  H   UNL     1     -48.282  37.196  28.809  1.00  0.00     0.057 H 
BRANCH  15  18
ATOM     18  N   UNL     1     -47.128  38.279  27.496  1.00  0.00    -0.247 N 
ATOM     19  C   UNL     1     -45.414  39.583  27.595  1.00  0.00     0.115 A 
ATOM     20  C   UNL     1     -46.024  38.541  28.254  1.00  0.00     0.054 A 
ATOM     21  N   UNL     1     -46.169  39.934  26.505  1.00  0.00    -0.130 NA
ATOM     22  H   UNL     1     -45.789  37.986  29.150  1.00  0.00     0.086 H 
ATOM     23  N   UNL     1     -47.222  39.128  26.454  1.00  0.00    -0.066 NA
BRANCH  19  24
ATOM     24  C   UNL     1     -44.203  40.277  27.933  1.00  0.00     0.029 A 
ATOM     25  C   UNL     1     -42.316  40.612  29.510  1.00  0.00    -0.045 A 
ATOM     26  C   UNL     1     -43.561  39.984  29.095  1.00  0.00    -0.049 A 
ATOM     27  C   UNL     1     -41.761  41.533  28.709  1.00  0.00     0.010 A 
ATOM     28  H   UNL     1     -41.865  40.316  30.451  1.00  0.00     0.064 H 
ATOM     29  H   UNL     1     -43.961  39.231  29.774  1.00  0.00     0.063 H 
ATOM     30  N   UNL     1     -42.402  41.863  27.523  1.00  0.00    -0.306 N 
ATOM     31  H   UNL     1     -40.836  42.045  28.945  1.00  0.00     0.082 H 
ATOM     32  C   UNL     1     -43.596  41.291  27.104  1.00  0.00     0.074 A 
ATOM     33  C   UNL     1     -42.042  42.775  26.563  1.00  0.00     0.099 A 
ATOM     34  C   UNL     1     -43.895  41.938  25.923  1.00  0.00     0.053 A 
ATOM     35  N   UNL     1     -42.920  42.843  25.587  1.00  0.00    -0.244 NA
ATOM     36  H   UNL     1     -41.135  43.360  26.635  1.00  0.00     0.105 H 
ATOM     37  H   UNL     1     -44.764  41.808  25.291  1.00  0.00     0.086 H 
ENDBRANCH  19  24
ENDBRANCH  15  18
ENDBRANCH   1  15
BRANCH   6  38
ATOM     38  C   UNL     1     -48.871  30.312  25.127  1.00  0.00     0.036 C 
ATOM     39  H   UNL     1     -48.482  30.046  24.136  1.00  0.00     0.049 H 
ATOM     40  H   UNL     1     -49.961  30.356  25.019  1.00  0.00     0.049 H 
BRANCH  38  41
ATOM     41  N   UNL     1     -48.474  29.264  26.064  1.00  0.00    -0.311 NA
ATOM     42  H   UNL     1     -48.863  29.467  26.982  1.00  0.00     0.123 HD
BRANCH  41  43
ATOM     43  C   UNL     1     -48.916  27.934  25.638  1.00  0.00    -0.002 C 
ATOM     44  H   UNL     1     -50.002  27.918  25.494  1.00  0.00     0.043 H 
ATOM     45  H   UNL     1     -48.449  27.670  24.682  1.00  0.00     0.043 H 
BRANCH  43  46
ATOM     46  C   UNL     1     -48.547  26.904  26.709  1.00  0.00    -0.029 C 
ATOM     47  C   UNL     1     -47.039  26.578  26.887  1.00  0.00    -0.049 C 
ATOM     48  C   UNL     1     -48.733  25.421  26.290  1.00  0.00    -0.049 C 
ATOM     49  H   UNL     1     -49.054  27.133  27.655  1.00  0.00     0.032 H 
ATOM     50  C   UNL     1     -47.236  25.388  25.929  1.00  0.00    -0.053 C 
ATOM     51  H   UNL     1     -46.328  27.338  26.553  1.00  0.00     0.027 H 
ATOM     52  H   UNL     1     -46.777  26.277  27.909  1.00  0.00     0.027 H 
ATOM     53  H   UNL     1     -49.423  25.230  25.463  1.00  0.00     0.027 H 
ATOM     54  H   UNL     1     -48.995  24.761  27.126  1.00  0.00     0.027 H 
ATOM     55  H   UNL     1     -46.704  24.471  26.197  1.00  0.00     0.027 H 
ATOM     56  H   UNL     1     -47.028  25.626  24.881  1.00  0.00     0.027 H 
ENDBRANCH  43  46
ENDBRANCH  41  43
ENDBRANCH  38  41
ENDBRANCH   6  38
TORSDOF 7
ENDMDL
MODEL 3
REMARK VINA RESULT:     -10.2      1.434      2.203
REMARK SMILES c1cc(-c2cn(Cc3ccc4cc(CNCC5CCC5)[nH]c4c3)nn2)c2cncn2c1
REMARK SMILES IDX 8 1 9 2 10 3 11 4 12 5 13 6 21 7 22 8 23 9 7 15 6 18 4 19
REMARK SMILES IDX 5 20 25 21 24 23 3 24 1 25 2 26 31 27 30 30 26 32 29 33
REMARK SMILES IDX 27 34 28 35 14 38 15 41 16 43 17 46 18 47 20 48 19 50
REMARK H PARENT 9 10 10 11 12 12 21 13 23 14 7 16 7 17 5 22 1 28 2 29 31 31
REMARK H PARENT 29 36 27 37 14 39 14 40 15 42 16 44 16 45 17 49 18 51 18 52
REMARK H PARENT 20 53 20 54 19 55 19 56
REMARK Flexibility Score: inf
ROOT
ATOM      1  C   UNL     1     -48.059  34.807  26.616  1.00  0.00    -0.024 A 
ATOM      2  C   UNL     1     -46.776  34.856  26.055  1.00  0.00    -0.056 A 
ATOM      3  C   UNL     1     -46.283  33.799  25.279  1.00  0.00    -0.052 A 
ATOM      4  C   UNL     1     -47.092  32.669  25.060  1.00  0.00    -0.000 A 
ATOM      5  C   UNL     1     -46.919  31.454  24.342  1.00  0.00    -0.032 A 
ATOM      6  C   UNL     1     -48.077  30.712  24.471  1.00  0.00     0.030 A 
ATOM      7  N   UNL     1     -48.937  31.437  25.261  1.00  0.00    -0.357 N 
ATOM      8  C   UNL     1     -48.362  32.633  25.627  1.00  0.00     0.046 A 
ATOM      9  C   UNL     1     -48.872  33.676  26.410  1.00  0.00    -0.033 A 
ATOM     10  H   UNL     1     -46.136  35.723  26.211  1.00  0.00     0.063 H 
ATOM     11  H   UNL     1     -45.287  33.853  24.849  1.00  0.00     0.063 H 
ATOM     12  H   UNL     1     -46.042  31.158  23.781  1.00  0.00     0.065 H 
ATOM     13  H   UNL     1     -49.865  31.142  25.532  1.00  0.00     0.166 HD
ATOM     14  H   UNL     1     -49.870  33.616  26.835  1.00  0.00     0.065 H 
ENDROOT
BRANCH   1  15
ATOM     15  C   UNL     1     -48.573  35.962  27.443  1.00  0.00     0.068 C 
ATOM     16  H   UNL     1     -49.434  36.427  26.948  1.00  0.00     0.057 H 
ATOM     17  H   UNL     1     -48.900  35.634  28.438  1.00  0.00     0.057 H 
BRANCH  15  18
ATOM     18  N   UNL     1     -47.550  36.971  27.649  1.00  0.00    -0.247 N 
ATOM     19  C   UNL     1     -46.216  38.658  27.514  1.00  0.00     0.115 A 
ATOM     20  C   UNL     1     -47.270  38.056  26.869  1.00  0.00     0.054 A 
ATOM     21  N   UNL     1     -45.874  37.917  28.617  1.00  0.00    -0.130 NA
ATOM     22  H   UNL     1     -47.824  38.284  25.972  1.00  0.00     0.086 H 
ATOM     23  N   UNL     1     -46.700  36.880  28.689  1.00  0.00    -0.066 NA
BRANCH  19  24
ATOM     24  C   UNL     1     -45.500  39.850  27.152  1.00  0.00     0.029 A 
ATOM     25  C   UNL     1     -43.331  41.024  26.876  1.00  0.00    -0.045 A 
ATOM     26  C   UNL     1     -44.144  39.876  27.247  1.00  0.00    -0.049 A 
ATOM     27  C   UNL     1     -43.942  42.124  26.414  1.00  0.00     0.010 A 
ATOM     28  H   UNL     1     -42.253  40.961  26.977  1.00  0.00     0.064 H 
ATOM     29  H   UNL     1     -43.597  39.003  27.601  1.00  0.00     0.063 H 
ATOM     30  N   UNL     1     -45.327  42.131  26.320  1.00  0.00    -0.306 N 
ATOM     31  H   UNL     1     -43.409  43.019  26.115  1.00  0.00     0.082 H 
ATOM     32  C   UNL     1     -46.132  41.057  26.675  1.00  0.00     0.074 A 
ATOM     33  C   UNL     1     -46.166  43.132  25.898  1.00  0.00     0.099 A 
ATOM     34  C   UNL     1     -47.420  41.508  26.478  1.00  0.00     0.053 A 
ATOM     35  N   UNL     1     -47.433  42.787  25.980  1.00  0.00    -0.244 NA
ATOM     36  H   UNL     1     -45.796  44.086  25.549  1.00  0.00     0.105 H 
ATOM     37  H   UNL     1     -48.349  40.986  26.668  1.00  0.00     0.086 H 
ENDBRANCH  19  24
ENDBRANCH  15  18
ENDBRANCH   1  15
BRANCH   6  38
ATOM     38  C   UNL     1     -48.446  29.374  23.931  1.00  0.00     0.036 C 
ATOM     39  H   UNL     1     -47.533  28.784  23.785  1.00  0.00     0.049 H 
ATOM     40  H   UNL     1     -48.904  29.466  22.938  1.00  0.00     0.049 H 
BRANCH  38  41
ATOM     41  N   UNL     1     -49.315  28.642  24.848  1.00  0.00    -0.311 NA
ATOM     42  H   UNL     1     -49.880  27.980  24.321  1.00  0.00     0.123 HD
BRANCH  41  43
ATOM     43  C   UNL     1     -48.563  27.919  25.876  1.00  0.00    -0.002 C 
ATOM     44  H   UNL     1     -47.648  28.462  26.137  1.00  0.00     0.043 H 
ATOM     45  H   UNL     1     -49.166  27.823  26.786  1.00  0.00     0.043 H 
BRANCH  43  46
ATOM     46  C   UNL     1     -48.177  26.533  25.350  1.00  0.00    -0.029 C 
ATOM     47  C   UNL     1     -48.463  25.319  26.276  1.00  0.00    -0.049 C 
ATOM     48  C   UNL     1     -46.673  26.173  25.481  1.00  0.00    -0.049 C 
ATOM     49  H   UNL     1     -48.549  26.392  24.327  1.00  0.00     0.032 H 
ATOM     50  C   UNL     1     -47.016  25.436  26.790  1.00  0.00    -0.053 C 
ATOM     51  H   UNL     1     -49.242  25.450  27.033  1.00  0.00     0.027 H 
ATOM     52  H   UNL     1     -48.659  24.390  25.728  1.00  0.00     0.027 H 
ATOM     53  H   UNL     1     -45.977  27.010  25.578  1.00  0.00     0.027 H 
ATOM     54  H   UNL     1     -46.314  25.507  24.687  1.00  0.00     0.027 H 
ATOM     55  H   UNL     1     -46.493  24.490  26.952  1.00  0.00     0.027 H 
ATOM     56  H   UNL     1     -46.914  26.056  27.687  1.00  0.00     0.027 H 
ENDBRANCH  43  46
ENDBRANCH  41  43
ENDBRANCH  38  41
ENDBRANCH   6  38
TORSDOF 7
ENDMDL
MODEL 4
REMARK VINA RESULT:     -10.0      2.339      4.363
REMARK SMILES c1cc(-c2cn(Cc3ccc4cc(CNCC5CCC5)[nH]c4c3)nn2)c2cncn2c1
REMARK SMILES IDX 8 1 9 2 10 3 11 4 12 5 13 6 21 7 22 8 23 9 7 15 6 18 4 19
REMARK SMILES IDX 5 20 25 21 24 23 3 24 1 25 2 26 31 27 30 30 26 32 29 33
REMARK SMILES IDX 27 34 28 35 14 38 15 41 16 43 17 46 18 47 20 48 19 50
REMARK H PARENT 9 10 10 11 12 12 21 13 23 14 7 16 7 17 5 22 1 28 2 29 31 31
REMARK H PARENT 29 36 27 37 14 39 14 40 15 42 16 44 16 45 17 49 18 51 18 52
REMARK H PARENT 20 53 20 54 19 55 19 56
REMARK Flexibility Score: inf
ROOT
ATOM      1  C   UNL     1     -45.536  37.338  28.759  1.00  0.00    -0.024 A 
ATOM      2  C   UNL     1     -46.540  37.923  27.975  1.00  0.00    -0.056 A 
ATOM      3  C   UNL     1     -47.223  37.182  27.002  1.00  0.00    -0.052 A 
ATOM      4  C   UNL     1     -46.893  35.828  26.808  1.00  0.00    -0.000 A 
ATOM      5  C   UNL     1     -47.371  34.809  25.940  1.00  0.00    -0.032 A 
ATOM      6  C   UNL     1     -46.670  33.650  26.212  1.00  0.00     0.030 A 
ATOM      7  N   UNL     1     -45.770  33.947  27.209  1.00  0.00    -0.357 N 
ATOM      8  C   UNL     1     -45.891  35.264  27.591  1.00  0.00     0.046 A 
ATOM      9  C   UNL     1     -45.193  35.987  28.566  1.00  0.00    -0.033 A 
ATOM     10  H   UNL     1     -46.812  38.968  28.112  1.00  0.00     0.063 H 
ATOM     11  H   UNL     1     -48.001  37.648  26.404  1.00  0.00     0.063 H 
ATOM     12  H   UNL     1     -48.153  34.910  25.199  1.00  0.00     0.065 H 
ATOM     13  H   UNL     1     -45.114  33.292  27.613  1.00  0.00     0.166 HD
ATOM     14  H   UNL     1     -44.418  35.513  29.162  1.00  0.00     0.065 H 
ENDROOT
BRANCH   1  15
ATOM     15  C   UNL     1     -44.818  38.154  29.808  1.00  0.00     0.068 C 
ATOM     16  H   UNL     1     -45.532  38.515  30.559  1.00  0.00     0.057 H 
ATOM     17  H   UNL     1     -44.058  37.562  30.332  1.00  0.00     0.057 H 
BRANCH  15  18
ATOM     18  N   UNL     1     -44.135  39.295  29.226  1.00  0.00    -0.247 N 
ATOM     19  C   UNL     1     -43.427  40.891  27.962  1.00  0.00     0.115 A 
ATOM     20  C   UNL     1     -44.341  39.864  28.002  1.00  0.00     0.054 A 
ATOM     21  N   UNL     1     -42.690  40.889  29.119  1.00  0.00    -0.130 NA
ATOM     22  H   UNL     1     -45.084  39.499  27.310  1.00  0.00     0.086 H 
ATOM     23  N   UNL     1     -43.132  39.902  29.889  1.00  0.00    -0.066 NA
BRANCH  19  24
ATOM     24  C   UNL     1     -43.186  41.841  26.912  1.00  0.00     0.029 A 
ATOM     25  C   UNL     1     -41.563  43.087  25.506  1.00  0.00    -0.045 A 
ATOM     26  C   UNL     1     -41.908  42.160  26.573  1.00  0.00    -0.049 A 
ATOM     27  C   UNL     1     -42.553  43.665  24.811  1.00  0.00     0.010 A 
ATOM     28  H   UNL     1     -40.517  43.281  25.295  1.00  0.00     0.064 H 
ATOM     29  H   UNL     1     -41.067  41.704  27.095  1.00  0.00     0.063 H 
ATOM     30  N   UNL     1     -43.868  43.370  25.145  1.00  0.00    -0.306 N 
ATOM     31  H   UNL     1     -42.380  44.364  24.002  1.00  0.00     0.082 H 
ATOM     32  C   UNL     1     -44.230  42.499  26.164  1.00  0.00     0.074 A 
ATOM     33  C   UNL     1     -45.033  43.845  24.596  1.00  0.00     0.099 A 
ATOM     34  C   UNL     1     -45.608  42.543  26.184  1.00  0.00     0.053 A 
ATOM     35  N   UNL     1     -46.098  43.365  25.200  1.00  0.00    -0.244 NA
ATOM     36  H   UNL     1     -45.039  44.539  23.767  1.00  0.00     0.105 H 
ATOM     37  H   UNL     1     -46.285  42.030  26.856  1.00  0.00     0.086 H 
ENDBRANCH  19  24
ENDBRANCH  15  18
ENDBRANCH   1  15
BRANCH   6  38
ATOM     38  C   UNL     1     -46.756  32.290  25.611  1.00  0.00     0.036 C 
ATOM     39  H   UNL     1     -47.731  32.179  25.121  1.00  0.00     0.049 H 
ATOM     40  H   UNL     1     -46.722  31.517  26.389  1.00  0.00     0.049 H 
BRANCH  38  41
ATOM     41  N   UNL     1     -45.719  32.076  24.607  1.00  0.00    -0.311 NA
ATOM     42  H   UNL     1     -44.867  31.757  25.064  1.00  0.00     0.123 HD
BRANCH  41  43
ATOM     43  C   UNL     1     -46.114  31.096  23.592  1.00  0.00    -0.002 C 
ATOM     44  H   UNL     1     -46.068  31.540  22.591  1.00  0.00     0.043 H 
ATOM     45  H   UNL     1     -45.431  30.239  23.610  1.00  0.00     0.043 H 
BRANCH  43  46
ATOM     46  C   UNL     1     -47.549  30.633  23.858  1.00  0.00    -0.029 C 
ATOM     47  C   UNL     1     -47.806  29.101  23.882  1.00  0.00    -0.049 C 
ATOM     48  C   UNL     1     -48.499  30.690  22.632  1.00  0.00    -0.049 C 
ATOM     49  H   UNL     1     -47.967  31.154  24.730  1.00  0.00     0.032 H 
ATOM     50  C   UNL     1     -48.200  29.197  22.397  1.00  0.00    -0.053 C 
ATOM     51  H   UNL     1     -46.946  28.462  24.099  1.00  0.00     0.027 H 
ATOM     52  H   UNL     1     -48.636  28.809  24.537  1.00  0.00     0.027 H 
ATOM     53  H   UNL     1     -48.210  31.364  21.821  1.00  0.00     0.027 H 
ATOM     54  H   UNL     1     -49.544  30.889  22.899  1.00  0.00     0.027 H 
ATOM     55  H   UNL     1     -49.054  28.585  22.093  1.00  0.00     0.027 H 
ATOM     56  H   UNL     1     -47.370  29.015  21.705  1.00  0.00     0.027 H 
ENDBRANCH  43  46
ENDBRANCH  41  43
ENDBRANCH  38  41
ENDBRANCH   6  38
TORSDOF 7
ENDMDL
MODEL 5
REMARK VINA RESULT:      -9.9      1.307      1.979
REMARK SMILES c1cc(-c2cn(Cc3ccc4cc(CNCC5CCC5)[nH]c4c3)nn2)c2cncn2c1
REMARK SMILES IDX 8 1 9 2 10 3 11 4 12 5 13 6 21 7 22 8 23 9 7 15 6 18 4 19
REMARK SMILES IDX 5 20 25 21 24 23 3 24 1 25 2 26 31 27 30 30 26 32 29 33
REMARK SMILES IDX 27 34 28 35 14 38 15 41 16 43 17 46 18 47 20 48 19 50
REMARK H PARENT 9 10 10 11 12 12 21 13 23 14 7 16 7 17 5 22 1 28 2 29 31 31
REMARK H PARENT 29 36 27 37 14 39 14 40 15 42 16 44 16 45 17 49 18 51 18 52
REMARK H PARENT 20 53 20 54 19 55 19 56
REMARK Flexibility Score: inf
ROOT
ATOM      1  C   UNL     1     -46.886  35.007  27.911  1.00  0.00    -0.024 A 
ATOM      2  C   UNL     1     -48.204  35.109  27.445  1.00  0.00    -0.056 A 
ATOM      3  C   UNL     1     -48.655  34.330  26.372  1.00  0.00    -0.052 A 
ATOM      4  C   UNL     1     -47.768  33.430  25.751  1.00  0.00    -0.000 A 
ATOM      5  C   UNL     1     -47.886  32.511  24.674  1.00  0.00    -0.032 A 
ATOM      6  C   UNL     1     -46.669  31.877  24.515  1.00  0.00     0.030 A 
ATOM      7  N   UNL     1     -45.814  32.402  25.456  1.00  0.00    -0.357 N 
ATOM      8  C   UNL     1     -46.462  33.344  26.223  1.00  0.00     0.046 A 
ATOM      9  C   UNL     1     -45.989  34.116  27.291  1.00  0.00    -0.033 A 
ATOM     10  H   UNL     1     -48.905  35.797  27.914  1.00  0.00     0.063 H 
ATOM     11  H   UNL     1     -49.680  34.418  26.024  1.00  0.00     0.063 H 
ATOM     12  H   UNL     1     -48.773  32.325  24.081  1.00  0.00     0.065 H 
ATOM     13  H   UNL     1     -44.848  32.132  25.578  1.00  0.00     0.166 HD
ATOM     14  H   UNL     1     -44.963  34.020  27.635  1.00  0.00     0.065 H 
ENDROOT
BRANCH   1  15
ATOM     15  C   UNL     1     -46.423  35.851  29.075  1.00  0.00     0.068 C 
ATOM     16  H   UNL     1     -47.178  35.844  29.871  1.00  0.00     0.057 H 
ATOM     17  H   UNL     1     -45.487  35.472  29.504  1.00  0.00     0.057 H 
BRANCH  15  18
ATOM     18  N   UNL     1     -46.176  37.224  28.677  1.00  0.00    -0.247 N 
ATOM     19  C   UNL     1     -45.325  39.102  28.047  1.00  0.00     0.115 A 
ATOM     20  C   UNL     1     -44.991  37.794  28.308  1.00  0.00     0.054 A 
ATOM     21  N   UNL     1     -46.660  39.289  28.296  1.00  0.00    -0.130 NA
ATOM     22  H   UNL     1     -44.068  37.237  28.269  1.00  0.00     0.086 H 
ATOM     23  N   UNL     1     -47.175  38.129  28.685  1.00  0.00    -0.066 NA
BRANCH  19  24
ATOM     24  C   UNL     1     -44.478  40.178  27.615  1.00  0.00     0.029 A 
ATOM     25  C   UNL     1     -43.944  41.913  25.921  1.00  0.00    -0.045 A 
ATOM     26  C   UNL     1     -44.727  40.797  26.429  1.00  0.00    -0.049 A 
ATOM     27  C   UNL     1     -42.916  42.365  26.654  1.00  0.00     0.010 A 
ATOM     28  H   UNL     1     -44.214  42.354  24.968  1.00  0.00     0.064 H 
ATOM     29  H   UNL     1     -45.560  40.479  25.804  1.00  0.00     0.063 H 
ATOM     30  N   UNL     1     -42.629  41.743  27.861  1.00  0.00    -0.306 N 
ATOM     31  H   UNL     1     -42.287  43.192  26.347  1.00  0.00     0.082 H 
ATOM     32  C   UNL     1     -43.350  40.670  28.368  1.00  0.00     0.074 A 
ATOM     33  C   UNL     1     -41.631  42.013  28.764  1.00  0.00     0.099 A 
ATOM     34  C   UNL     1     -42.699  40.338  29.539  1.00  0.00     0.053 A 
ATOM     35  N   UNL     1     -41.647  41.185  29.785  1.00  0.00    -0.244 NA
ATOM     36  H   UNL     1     -40.924  42.818  28.619  1.00  0.00     0.105 H 
ATOM     37  H   UNL     1     -42.925  39.532  30.225  1.00  0.00     0.086 H 
ENDBRANCH  19  24
ENDBRANCH  15  18
ENDBRANCH   1  15
BRANCH   6  38
ATOM     38  C   UNL     1     -46.229  30.832  23.550  1.00  0.00     0.036 C 
ATOM     39  H   UNL     1     -45.135  30.856  23.474  1.00  0.00     0.049 H 
ATOM     40  H   UNL     1     -46.603  31.050  22.542  1.00  0.00     0.049 H 
BRANCH  38  41
ATOM     41  N   UNL     1     -46.623  29.495  23.983  1.00  0.00    -0.311 NA
ATOM     42  H   UNL     1     -46.213  29.300  24.894  1.00  0.00     0.123 HD
BRANCH  41  43
ATOM     43  C   UNL     1     -48.077  29.339  24.069  1.00  0.00    -0.002 C 
ATOM     44  H   UNL     1     -48.465  29.838  24.964  1.00  0.00     0.043 H 
ATOM     45  H   UNL     1     -48.557  29.797  23.196  1.00  0.00     0.043 H 
BRANCH  43  46
ATOM     46  C   UNL     1     -48.430  27.851  24.144  1.00  0.00    -0.029 C 
ATOM     47  C   UNL     1     -49.669  27.459  24.995  1.00  0.00    -0.049 C 
ATOM     48  C   UNL     1     -47.583  27.022  25.147  1.00  0.00    -0.049 C 
ATOM     49  H   UNL     1     -48.437  27.405  23.141  1.00  0.00     0.032 H 
ATOM     50  C   UNL     1     -48.714  27.207  26.176  1.00  0.00    -0.053 C 
ATOM     51  H   UNL     1     -50.421  28.237  25.156  1.00  0.00     0.027 H 
ATOM     52  H   UNL     1     -50.173  26.552  24.638  1.00  0.00     0.027 H 
ATOM     53  H   UNL     1     -46.613  27.440  25.429  1.00  0.00     0.027 H 
ATOM     54  H   UNL     1     -47.441  25.979  24.839  1.00  0.00     0.027 H 
ATOM     55  H   UNL     1     -48.943  26.333  26.792  1.00  0.00     0.027 H 
ATOM     56  H   UNL     1     -48.580  28.076  26.829  1.00  0.00     0.027 H 
ENDBRANCH  43  46
ENDBRANCH  41  43
ENDBRANCH  38  41
ENDBRANCH   6  38
TORSDOF 7
ENDMDL
MODEL 6
REMARK VINA RESULT:      -9.8      1.873      2.998
REMARK SMILES c1cc(-c2cn(Cc3ccc4cc(CNCC5CCC5)[nH]c4c3)nn2)c2cncn2c1
REMARK SMILES IDX 8 1 9 2 10 3 11 4 12 5 13 6 21 7 22 8 23 9 7 15 6 18 4 19
REMARK SMILES IDX 5 20 25 21 24 23 3 24 1 25 2 26 31 27 30 30 26 32 29 33
REMARK SMILES IDX 27 34 28 35 14 38 15 41 16 43 17 46 18 47 20 48 19 50
REMARK H PARENT 9 10 10 11 12 12 21 13 23 14 7 16 7 17 5 22 1 28 2 29 31 31
REMARK H PARENT 29 36 27 37 14 39 14 40 15 42 16 44 16 45 17 49 18 51 18 52
REMARK H PARENT 20 53 20 54 19 55 19 56
REMARK Flexibility Score: inf
ROOT
ATOM      1  C   UNL     1     -47.777  35.700  26.842  1.00  0.00    -0.024 A 
ATOM      2  C   UNL     1     -46.546  35.440  26.226  1.00  0.00    -0.056 A 
ATOM      3  C   UNL     1     -46.282  34.200  25.629  1.00  0.00    -0.052 A 
ATOM      4  C   UNL     1     -47.273  33.201  25.648  1.00  0.00    -0.000 A 
ATOM      5  C   UNL     1     -47.345  31.871  25.150  1.00  0.00    -0.032 A 
ATOM      6  C   UNL     1     -48.593  31.366  25.458  1.00  0.00     0.030 A 
ATOM      7  N   UNL     1     -49.269  32.347  26.144  1.00  0.00    -0.357 N 
ATOM      8  C   UNL     1     -48.488  33.474  26.267  1.00  0.00     0.046 A 
ATOM      9  C   UNL     1     -48.771  34.704  26.874  1.00  0.00    -0.033 A 
ATOM     10  H   UNL     1     -45.768  36.201  26.199  1.00  0.00     0.063 H 
ATOM     11  H   UNL     1     -45.324  34.014  25.154  1.00  0.00     0.063 H 
ATOM     12  H   UNL     1     -46.568  31.343  24.614  1.00  0.00     0.065 H 
ATOM     13  H   UNL     1     -50.211  32.261  26.502  1.00  0.00     0.166 HD
ATOM     14  H   UNL     1     -49.733  34.884  27.345  1.00  0.00     0.065 H 
ENDROOT
BRANCH   1  15
ATOM     15  C   UNL     1     -48.043  37.047  27.473  1.00  0.00     0.068 C 
ATOM     16  H   UNL     1     -48.383  37.760  26.712  1.00  0.00     0.057 H 
ATOM     17  H   UNL     1     -48.821  36.987  28.243  1.00  0.00     0.057 H 
BRANCH  15  18
ATOM     18  N   UNL     1     -46.856  37.581  28.116  1.00  0.00    -0.247 N 
ATOM     19  C   UNL     1     -45.104  38.704  28.678  1.00  0.00     0.115 A 
ATOM     20  C   UNL     1     -46.097  38.648  27.728  1.00  0.00     0.054 A 
ATOM     21  N   UNL     1     -45.267  37.673  29.567  1.00  0.00    -0.130 NA
ATOM     22  H   UNL     1     -46.327  39.237  26.854  1.00  0.00     0.086 H 
ATOM     23  N   UNL     1     -46.346  36.987  29.212  1.00  0.00    -0.066 NA
BRANCH  19  24
ATOM     24  C   UNL     1     -44.012  39.631  28.784  1.00  0.00     0.029 A 
ATOM     25  C   UNL     1     -42.022  40.435  30.032  1.00  0.00    -0.045 A 
ATOM     26  C   UNL     1     -43.171  39.561  29.851  1.00  0.00    -0.049 A 
ATOM     27  C   UNL     1     -41.769  41.367  29.102  1.00  0.00     0.010 A 
ATOM     28  H   UNL     1     -41.397  40.309  30.909  1.00  0.00     0.064 H 
ATOM     29  H   UNL     1     -43.322  38.811  30.626  1.00  0.00     0.063 H 
ATOM     30  N   UNL     1     -42.620  41.473  28.010  1.00  0.00    -0.306 N 
ATOM     31  H   UNL     1     -40.935  42.055  29.162  1.00  0.00     0.082 H 
ATOM     32  C   UNL     1     -43.730  40.661  27.813  1.00  0.00     0.074 A 
ATOM     33  C   UNL     1     -42.577  42.347  26.953  1.00  0.00     0.099 A 
ATOM     34  C   UNL     1     -44.308  41.138  26.655  1.00  0.00     0.053 A 
ATOM     35  N   UNL     1     -43.578  42.171  26.120  1.00  0.00    -0.244 NA
ATOM     36  H   UNL     1     -41.797  43.088  26.850  1.00  0.00     0.105 H 
ATOM     37  H   UNL     1     -45.215  40.800  26.172  1.00  0.00     0.086 H 
ENDBRANCH  19  24
ENDBRANCH  15  18
ENDBRANCH   1  15
BRANCH   6  38
ATOM     38  C   UNL     1     -49.206  30.037  25.180  1.00  0.00     0.036 C 
ATOM     39  H   UNL     1     -50.298  30.133  25.220  1.00  0.00     0.049 H 
ATOM     40  H   UNL     1     -48.940  29.314  25.960  1.00  0.00     0.049 H 
BRANCH  38  41
ATOM     41  N   UNL     1     -48.845  29.542  23.855  1.00  0.00    -0.311 NA
ATOM     42  H   UNL     1     -48.954  30.290  23.173  1.00  0.00     0.123 HD
BRANCH  41  43
ATOM     43  C   UNL     1     -47.470  29.039  23.799  1.00  0.00    -0.002 C 
ATOM     44  H   UNL     1     -46.830  29.592  24.496  1.00  0.00     0.043 H 
ATOM     45  H   UNL     1     -47.443  27.982  24.087  1.00  0.00     0.043 H 
BRANCH  43  46
ATOM     46  C   UNL     1     -46.917  29.214  22.381  1.00  0.00    -0.029 C 
ATOM     47  C   UNL     1     -45.422  29.615  22.249  1.00  0.00    -0.049 C 
ATOM     48  C   UNL     1     -47.255  30.569  21.703  1.00  0.00    -0.049 C 
ATOM     49  H   UNL     1     -47.191  28.357  21.752  1.00  0.00     0.032 H 
ATOM     50  C   UNL     1     -45.878  31.083  22.163  1.00  0.00    -0.053 C 
ATOM     51  H   UNL     1     -44.772  29.374  23.094  1.00  0.00     0.027 H 
ATOM     52  H   UNL     1     -44.953  29.248  21.328  1.00  0.00     0.027 H 
ATOM     53  H   UNL     1     -48.118  31.110  22.099  1.00  0.00     0.027 H 
ATOM     54  H   UNL     1     -47.353  30.498  20.614  1.00  0.00     0.027 H 
ATOM     55  H   UNL     1     -45.339  31.705  21.442  1.00  0.00     0.027 H 
ATOM     56  H   UNL     1     -45.897  31.598  23.129  1.00  0.00     0.027 H 
ENDBRANCH  43  46
ENDBRANCH  41  43
ENDBRANCH  38  41
ENDBRANCH   6  38
TORSDOF 7
ENDMDL
MODEL 7
REMARK VINA RESULT:      -9.5      2.045      2.898
REMARK SMILES c1cc(-c2cn(Cc3ccc4cc(CNCC5CCC5)[nH]c4c3)nn2)c2cncn2c1
REMARK SMILES IDX 8 1 9 2 10 3 11 4 12 5 13 6 21 7 22 8 23 9 7 15 6 18 4 19
REMARK SMILES IDX 5 20 25 21 24 23 3 24 1 25 2 26 31 27 30 30 26 32 29 33
REMARK SMILES IDX 27 34 28 35 14 38 15 41 16 43 17 46 18 47 20 48 19 50
REMARK H PARENT 9 10 10 11 12 12 21 13 23 14 7 16 7 17 5 22 1 28 2 29 31 31
REMARK H PARENT 29 36 27 37 14 39 14 40 15 42 16 44 16 45 17 49 18 51 18 52
REMARK H PARENT 20 53 20 54 19 55 19 56
REMARK Flexibility Score: inf
ROOT
ATOM      1  C   UNL     1     -46.649  34.889  27.040  1.00  0.00    -0.024 A 
ATOM      2  C   UNL     1     -48.017  35.185  27.110  1.00  0.00    -0.056 A 
ATOM      3  C   UNL     1     -48.974  34.319  26.567  1.00  0.00    -0.052 A 
ATOM      4  C   UNL     1     -48.555  33.130  25.942  1.00  0.00    -0.000 A 
ATOM      5  C   UNL     1     -49.233  32.054  25.309  1.00  0.00    -0.032 A 
ATOM      6  C   UNL     1     -48.287  31.141  24.884  1.00  0.00     0.030 A 
ATOM      7  N   UNL     1     -47.055  31.646  25.228  1.00  0.00    -0.357 N 
ATOM      8  C   UNL     1     -47.193  32.852  25.877  1.00  0.00     0.046 A 
ATOM      9  C   UNL     1     -46.218  33.706  26.408  1.00  0.00    -0.033 A 
ATOM     10  H   UNL     1     -48.361  36.099  27.592  1.00  0.00     0.063 H 
ATOM     11  H   UNL     1     -50.031  34.561  26.632  1.00  0.00     0.063 H 
ATOM     12  H   UNL     1     -50.303  31.953  25.185  1.00  0.00     0.065 H 
ATOM     13  H   UNL     1     -46.169  31.196  25.041  1.00  0.00     0.166 HD
ATOM     14  H   UNL     1     -45.163  33.456  26.343  1.00  0.00     0.065 H 
ENDROOT
BRANCH   1  15
ATOM     15  C   UNL     1     -45.633  35.834  27.639  1.00  0.00     0.068 C 
ATOM     16  H   UNL     1     -45.292  35.455  28.610  1.00  0.00     0.057 H 
ATOM     17  H   UNL     1     -44.751  35.941  26.996  1.00  0.00     0.057 H 
BRANCH  15  18
ATOM     18  N   UNL     1     -46.183  37.164  27.823  1.00  0.00    -0.247 N 
ATOM     19  C   UNL     1     -46.927  39.174  27.589  1.00  0.00     0.115 A 
ATOM     20  C   UNL     1     -46.419  38.116  26.873  1.00  0.00     0.054 A 
ATOM     21  N   UNL     1     -46.947  38.852  28.922  1.00  0.00    -0.130 NA
ATOM     22  H   UNL     1     -46.213  37.955  25.826  1.00  0.00     0.086 H 
ATOM     23  N   UNL     1     -46.485  37.615  29.055  1.00  0.00    -0.066 NA
BRANCH  19  24
ATOM     24  C   UNL     1     -47.360  40.458  27.114  1.00  0.00     0.029 A 
ATOM     25  C   UNL     1     -49.183  42.123  26.852  1.00  0.00    -0.045 A 
ATOM     26  C   UNL     1     -48.658  40.833  27.273  1.00  0.00    -0.049 A 
ATOM     27  C   UNL     1     -48.351  42.999  26.272  1.00  0.00     0.010 A 
ATOM     28  H   UNL     1     -50.231  42.345  27.023  1.00  0.00     0.064 H 
ATOM     29  H   UNL     1     -49.371  40.165  27.754  1.00  0.00     0.063 H 
ATOM     30  N   UNL     1     -47.024  42.638  26.082  1.00  0.00    -0.306 N 
ATOM     31  H   UNL     1     -48.663  43.979  25.932  1.00  0.00     0.082 H 
ATOM     32  C   UNL     1     -46.494  41.412  26.463  1.00  0.00     0.074 A 
ATOM     33  C   UNL     1     -46.002  43.348  25.504  1.00  0.00     0.099 A 
ATOM     34  C   UNL     1     -45.181  41.456  26.043  1.00  0.00     0.053 A 
ATOM     35  N   UNL     1     -44.880  42.665  25.466  1.00  0.00    -0.244 NA
ATOM     36  H   UNL     1     -46.139  44.352  25.126  1.00  0.00     0.105 H 
ATOM     37  H   UNL     1     -44.427  40.683  26.121  1.00  0.00     0.086 H 
ENDBRANCH  19  24
ENDBRANCH  15  18
ENDBRANCH   1  15
BRANCH   6  38
ATOM     38  C   UNL     1     -48.432  29.843  24.170  1.00  0.00     0.036 C 
ATOM     39  H   UNL     1     -48.023  29.945  23.158  1.00  0.00     0.049 H 
ATOM     40  H   UNL     1     -49.490  29.584  24.041  1.00  0.00     0.049 H 
BRANCH  38  41
ATOM     41  N   UNL     1     -47.705  28.771  24.844  1.00  0.00    -0.311 NA
ATOM     42  H   UNL     1     -47.016  29.175  25.475  1.00  0.00     0.123 HD
BRANCH  41  43
ATOM     43  C   UNL     1     -48.589  27.884  25.604  1.00  0.00    -0.002 C 
ATOM     44  H   UNL     1     -48.541  28.118  26.674  1.00  0.00     0.043 H 
ATOM     45  H   UNL     1     -49.627  28.019  25.279  1.00  0.00     0.043 H 
BRANCH  43  46
ATOM     46  C   UNL     1     -48.156  26.430  25.400  1.00  0.00    -0.029 C 
ATOM     47  C   UNL     1     -48.173  25.504  26.647  1.00  0.00    -0.049 C 
ATOM     48  C   UNL     1     -46.622  26.198  25.352  1.00  0.00    -0.049 C 
ATOM     49  H   UNL     1     -48.668  25.994  24.532  1.00  0.00     0.032 H 
ATOM     50  C   UNL     1     -46.682  25.832  26.847  1.00  0.00    -0.053 C 
ATOM     51  H   UNL     1     -48.833  25.797  27.468  1.00  0.00     0.027 H 
ATOM     52  H   UNL     1     -48.360  24.451  26.404  1.00  0.00     0.027 H 
ATOM     53  H   UNL     1     -46.005  27.065  25.101  1.00  0.00     0.027 H 
ATOM     54  H   UNL     1     -46.328  25.360  24.709  1.00  0.00     0.027 H 
ATOM     55  H   UNL     1     -46.050  24.995  27.155  1.00  0.00     0.027 H 
ATOM     56  H   UNL     1     -46.502  26.679  27.517  1.00  0.00     0.027 H 
ENDBRANCH  43  46
ENDBRANCH  41  43
ENDBRANCH  38  41
ENDBRANCH   6  38
TORSDOF 7
ENDMDL
