MODEL 1
REMARK VINA RESULT:     -10.6      0.000      0.000
REMARK SMILES CNc1ccc2ccc(CCc3cncc(-n4cc(F)c5c(N)ncnc54)c3)cc2n1
REMARK SMILES IDX 10 1 9 4 3 5 4 6 31 7 5 8 30 10 6 11 29 13 7 14 8 16 2 19
REMARK SMILES IDX 1 21 11 25 12 28 13 29 28 30 14 31 16 33 15 35 17 37 18 38
REMARK SMILES IDX 27 39 19 40 21 42 26 43 20 44 22 45 25 46 24 47 23 49
REMARK H PARENT 10 2 10 3 4 9 5 12 29 15 7 17 8 18 2 20 1 22 1 23 1 24 11 26
REMARK H PARENT 11 27 13 32 28 34 15 36 18 41 25 48 23 50 23 51
REMARK Flexibility Score: inf
ROOT
ATOM      1  C   UNL     1     -46.954  37.443  27.889  1.00  0.00    -0.024 C 
ATOM      2  H   UNL     1     -47.790  38.138  27.736  1.00  0.00     0.032 H 
ATOM      3  H   UNL     1     -47.299  36.730  28.650  1.00  0.00     0.032 H 
ENDROOT
BRANCH   1   4
ATOM      4  C   UNL     1     -45.764  38.187  28.445  1.00  0.00    -0.046 A 
ATOM      5  C   UNL     1     -42.567  41.697  27.954  1.00  0.00     0.126 A 
ATOM      6  C   UNL     1     -41.935  41.348  29.143  1.00  0.00    -0.019 A 
ATOM      7  N   UNL     1     -43.635  41.013  27.495  1.00  0.00    -0.231 NA
ATOM      8  C   UNL     1     -42.423  40.279  29.889  1.00  0.00    -0.049 A 
ATOM      9  H   UNL     1     -41.060  41.893  29.480  1.00  0.00     0.066 H 
ATOM     10  C   UNL     1     -44.111  39.977  28.211  1.00  0.00     0.073 A 
ATOM     11  C   UNL     1     -43.535  39.571  29.429  1.00  0.00     0.000 A 
ATOM     12  H   UNL     1     -41.930  40.006  30.816  1.00  0.00     0.063 H 
ATOM     13  C   UNL     1     -45.213  39.272  27.742  1.00  0.00    -0.032 A 
ATOM     14  C   UNL     1     -44.070  38.485  30.142  1.00  0.00    -0.053 A 
ATOM     15  H   UNL     1     -45.649  39.582  26.795  1.00  0.00     0.065 H 
ATOM     16  C   UNL     1     -45.179  37.798  29.652  1.00  0.00    -0.058 A 
ATOM     17  H   UNL     1     -43.624  38.170  31.083  1.00  0.00     0.063 H 
ATOM     18  H   UNL     1     -45.581  36.961  30.218  1.00  0.00     0.063 H 
BRANCH   5  19
ATOM     19  N   UNL     1     -42.031  42.767  27.215  1.00  0.00    -0.373 N 
ATOM     20  H   UNL     1     -41.920  43.567  27.831  1.00  0.00     0.161 HD
BRANCH  19  21
ATOM     21  C   UNL     1     -42.790  43.103  26.022  1.00  0.00     0.005 C 
ATOM     22  H   UNL     1     -43.786  43.486  26.271  1.00  0.00     0.045 H 
ATOM     23  H   UNL     1     -42.260  43.891  25.476  1.00  0.00     0.045 H 
ATOM     24  H   UNL     1     -42.881  42.245  25.347  1.00  0.00     0.045 H 
ENDBRANCH  19  21
ENDBRANCH   5  19
ENDBRANCH   1   4
BRANCH   1  25
ATOM     25  C   UNL     1     -46.647  36.679  26.594  1.00  0.00    -0.022 C 
ATOM     26  H   UNL     1     -45.644  36.956  26.247  1.00  0.00     0.032 H 
ATOM     27  H   UNL     1     -47.332  36.991  25.796  1.00  0.00     0.032 H 
BRANCH  25  28
ATOM     28  C   UNL     1     -46.691  35.181  26.750  1.00  0.00    -0.027 A 
ATOM     29  C   UNL     1     -46.122  34.558  27.851  1.00  0.00     0.030 A 
ATOM     30  C   UNL     1     -47.287  34.366  25.776  1.00  0.00    -0.032 A 
ATOM     31  N   UNL     1     -46.127  33.223  28.042  1.00  0.00    -0.262 NA
ATOM     32  H   UNL     1     -45.629  35.127  28.634  1.00  0.00     0.084 H 
ATOM     33  C   UNL     1     -47.301  32.976  25.925  1.00  0.00     0.066 A 
ATOM     34  H   UNL     1     -47.716  34.856  24.909  1.00  0.00     0.065 H 
ATOM     35  C   UNL     1     -46.706  32.467  27.078  1.00  0.00     0.051 A 
ATOM     36  H   UNL     1     -46.665  31.409  27.309  1.00  0.00     0.086 H 
BRANCH  33  37
ATOM     37  N   UNL     1     -47.886  32.102  24.952  1.00  0.00    -0.297 N 
ATOM     38  C   UNL     1     -49.173  31.584  25.021  1.00  0.00     0.048 A 
ATOM     39  C   UNL     1     -47.306  31.606  23.772  1.00  0.00     0.153 A 
ATOM     40  C   UNL     1     -49.377  30.787  23.928  1.00  0.00     0.154 A 
ATOM     41  H   UNL     1     -49.847  31.798  25.835  1.00  0.00     0.085 H 
ATOM     42  C   UNL     1     -48.227  30.781  23.131  1.00  0.00     0.097 A 
ATOM     43  N   UNL     1     -46.069  31.872  23.301  1.00  0.00    -0.218 NA
ATOM     44  F   UNL     1     -50.510  30.127  23.668  1.00  0.00    -0.204 F 
ATOM     45  C   UNL     1     -47.838  30.180  21.929  1.00  0.00     0.139 A 
ATOM     46  C   UNL     1     -45.808  31.250  22.143  1.00  0.00     0.120 A 
ATOM     47  N   UNL     1     -46.612  30.436  21.440  1.00  0.00    -0.219 NA
ATOM     48  H   UNL     1     -44.824  31.427  21.717  1.00  0.00     0.106 H 
BRANCH  45  49
ATOM     49  N   UNL     1     -48.651  29.334  21.194  1.00  0.00    -0.383 N 
ATOM     50  H   UNL     1     -48.187  28.764  20.499  1.00  0.00     0.158 HD
ATOM     51  H   UNL     1     -49.354  28.887  21.769  1.00  0.00     0.158 HD
ENDBRANCH  45  49
ENDBRANCH  33  37
ENDBRANCH  25  28
ENDBRANCH   1  25
TORSDOF 7
ENDMDL
MODEL 2
REMARK VINA RESULT:     -10.0      3.407     10.409
REMARK SMILES CNc1ccc2ccc(CCc3cncc(-n4cc(F)c5c(N)ncnc54)c3)cc2n1
REMARK SMILES IDX 10 1 9 4 3 5 4 6 31 7 5 8 30 10 6 11 29 13 7 14 8 16 2 19
REMARK SMILES IDX 1 21 11 25 12 28 13 29 28 30 14 31 16 33 15 35 17 37 18 38
REMARK SMILES IDX 27 39 19 40 21 42 26 43 20 44 22 45 25 46 24 47 23 49
REMARK H PARENT 10 2 10 3 4 9 5 12 29 15 7 17 8 18 2 20 1 22 1 23 1 24 11 26
REMARK H PARENT 11 27 13 32 28 34 15 36 18 41 25 48 23 50 23 51
REMARK Flexibility Score: inf
ROOT
ATOM      1  C   UNL     1     -48.584  35.774  27.549  1.00  0.00    -0.024 C 
ATOM      2  H   UNL     1     -48.409  35.496  28.596  1.00  0.00     0.032 H 
ATOM      3  H   UNL     1     -49.675  35.795  27.428  1.00  0.00     0.032 H 
ENDROOT
BRANCH   1   4
ATOM      4  C   UNL     1     -48.029  34.705  26.637  1.00  0.00    -0.046 A 
ATOM      5  C   UNL     1     -48.563  30.431  24.583  1.00  0.00     0.126 A 
ATOM      6  C   UNL     1     -47.320  30.522  23.966  1.00  0.00    -0.019 A 
ATOM      7  N   UNL     1     -49.028  31.412  25.383  1.00  0.00    -0.231 NA
ATOM      8  C   UNL     1     -46.541  31.659  24.161  1.00  0.00    -0.049 A 
ATOM      9  H   UNL     1     -46.952  29.710  23.349  1.00  0.00     0.066 H 
ATOM     10  C   UNL     1     -48.279  32.513  25.577  1.00  0.00     0.073 A 
ATOM     11  C   UNL     1     -47.018  32.686  24.978  1.00  0.00     0.000 A 
ATOM     12  H   UNL     1     -45.571  31.731  23.680  1.00  0.00     0.063 H 
ATOM     13  C   UNL     1     -48.757  33.527  26.399  1.00  0.00    -0.032 A 
ATOM     14  C   UNL     1     -46.275  33.856  25.209  1.00  0.00    -0.053 A 
ATOM     15  H   UNL     1     -49.728  33.385  26.869  1.00  0.00     0.065 H 
ATOM     16  C   UNL     1     -46.779  34.860  26.034  1.00  0.00    -0.058 A 
ATOM     17  H   UNL     1     -45.299  33.989  24.747  1.00  0.00     0.063 H 
ATOM     18  H   UNL     1     -46.191  35.759  26.201  1.00  0.00     0.063 H 
BRANCH   5  19
ATOM     19  N   UNL     1     -49.311  29.256  24.381  1.00  0.00    -0.373 N 
ATOM     20  H   UNL     1     -50.299  29.488  24.410  1.00  0.00     0.161 HD
BRANCH  19  21
ATOM     21  C   UNL     1     -48.980  28.178  25.298  1.00  0.00     0.005 C 
ATOM     22  H   UNL     1     -49.701  27.355  25.232  1.00  0.00     0.045 H 
ATOM     23  H   UNL     1     -47.996  27.777  25.034  1.00  0.00     0.045 H 
ATOM     24  H   UNL     1     -48.920  28.534  26.333  1.00  0.00     0.045 H 
ENDBRANCH  19  21
ENDBRANCH   5  19
ENDBRANCH   1   4
BRANCH   1  25
ATOM     25  C   UNL     1     -48.024  37.173  27.262  1.00  0.00    -0.022 C 
ATOM     26  H   UNL     1     -48.813  37.915  27.437  1.00  0.00     0.032 H 
ATOM     27  H   UNL     1     -47.760  37.268  26.201  1.00  0.00     0.032 H 
BRANCH  25  28
ATOM     28  C   UNL     1     -46.839  37.538  28.119  1.00  0.00    -0.027 A 
ATOM     29  C   UNL     1     -46.560  36.845  29.288  1.00  0.00     0.030 A 
ATOM     30  C   UNL     1     -45.996  38.604  27.775  1.00  0.00    -0.032 A 
ATOM     31  N   UNL     1     -45.519  37.129  30.096  1.00  0.00    -0.262 NA
ATOM     32  H   UNL     1     -47.183  36.020  29.622  1.00  0.00     0.084 H 
ATOM     33  C   UNL     1     -44.913  38.945  28.593  1.00  0.00     0.066 A 
ATOM     34  H   UNL     1     -46.228  39.154  26.870  1.00  0.00     0.065 H 
ATOM     35  C   UNL     1     -44.728  38.170  29.735  1.00  0.00     0.051 A 
ATOM     36  H   UNL     1     -43.919  38.330  30.439  1.00  0.00     0.086 H 
BRANCH  33  37
ATOM     37  N   UNL     1     -44.031  40.033  28.290  1.00  0.00    -0.297 N 
ATOM     38  C   UNL     1     -43.005  40.478  29.114  1.00  0.00     0.048 A 
ATOM     39  C   UNL     1     -44.018  40.844  27.143  1.00  0.00     0.153 A 
ATOM     40  C   UNL     1     -42.388  41.534  28.503  1.00  0.00     0.154 A 
ATOM     41  H   UNL     1     -42.791  40.034  30.073  1.00  0.00     0.085 H 
ATOM     42  C   UNL     1     -43.001  41.786  27.271  1.00  0.00     0.097 A 
ATOM     43  N   UNL     1     -44.833  40.749  26.072  1.00  0.00    -0.218 NA
ATOM     44  F   UNL     1     -41.352  42.209  29.013  1.00  0.00    -0.204 F 
ATOM     45  C   UNL     1     -42.822  42.700  26.226  1.00  0.00     0.139 A 
ATOM     46  C   UNL     1     -44.568  41.667  25.131  1.00  0.00     0.120 A 
ATOM     47  N   UNL     1     -43.620  42.619  25.148  1.00  0.00    -0.219 NA
ATOM     48  H   UNL     1     -45.195  41.638  24.245  1.00  0.00     0.106 H 
BRANCH  45  49
ATOM     49  N   UNL     1     -41.856  43.691  26.227  1.00  0.00    -0.383 N 
ATOM     50  H   UNL     1     -41.020  43.497  26.764  1.00  0.00     0.158 HD
ATOM     51  H   UNL     1     -41.735  44.107  25.312  1.00  0.00     0.158 HD
ENDBRANCH  45  49
ENDBRANCH  33  37
ENDBRANCH  25  28
ENDBRANCH   1  25
TORSDOF 7
ENDMDL
MODEL 3
REMARK VINA RESULT:     -10.0      3.523     10.381
REMARK SMILES CNc1ccc2ccc(CCc3cncc(-n4cc(F)c5c(N)ncnc54)c3)cc2n1
REMARK SMILES IDX 10 1 9 4 3 5 4 6 31 7 5 8 30 10 6 11 29 13 7 14 8 16 2 19
REMARK SMILES IDX 1 21 11 25 12 28 13 29 28 30 14 31 16 33 15 35 17 37 18 38
REMARK SMILES IDX 27 39 19 40 21 42 26 43 20 44 22 45 25 46 24 47 23 49
REMARK H PARENT 10 2 10 3 4 9 5 12 29 15 7 17 8 18 2 20 1 22 1 23 1 24 11 26
REMARK H PARENT 11 27 13 32 28 34 15 36 18 41 25 48 23 50 23 51
REMARK Flexibility Score: inf
ROOT
ATOM      1  C   UNL     1     -46.600  37.555  27.651  1.00  0.00    -0.024 C 
ATOM      2  H   UNL     1     -47.371  38.175  28.126  1.00  0.00     0.032 H 
ATOM      3  H   UNL     1     -46.242  38.138  26.791  1.00  0.00     0.032 H 
ENDROOT
BRANCH   1   4
ATOM      4  C   UNL     1     -47.218  36.279  27.131  1.00  0.00    -0.046 A 
ATOM      5  C   UNL     1     -46.701  32.198  24.712  1.00  0.00     0.126 A 
ATOM      6  C   UNL     1     -48.041  31.871  24.889  1.00  0.00    -0.019 A 
ATOM      7  N   UNL     1     -46.183  33.343  25.201  1.00  0.00    -0.231 NA
ATOM      8  C   UNL     1     -48.867  32.734  25.602  1.00  0.00    -0.049 A 
ATOM      9  H   UNL     1     -48.444  30.959  24.463  1.00  0.00     0.066 H 
ATOM     10  C   UNL     1     -46.977  34.184  25.889  1.00  0.00     0.073 A 
ATOM     11  C   UNL     1     -48.339  33.918  26.122  1.00  0.00     0.000 A 
ATOM     12  H   UNL     1     -49.913  32.480  25.739  1.00  0.00     0.063 H 
ATOM     13  C   UNL     1     -46.446  35.363  26.397  1.00  0.00    -0.032 A 
ATOM     14  C   UNL     1     -49.127  34.825  26.850  1.00  0.00    -0.053 A 
ATOM     15  H   UNL     1     -45.395  35.571  26.206  1.00  0.00     0.065 H 
ATOM     16  C   UNL     1     -48.568  35.999  27.352  1.00  0.00    -0.058 A 
ATOM     17  H   UNL     1     -50.181  34.620  27.029  1.00  0.00     0.063 H 
ATOM     18  H   UNL     1     -49.193  36.689  27.914  1.00  0.00     0.063 H 
BRANCH   5  19
ATOM     19  N   UNL     1     -45.902  31.312  23.966  1.00  0.00    -0.373 N 
ATOM     20  H   UNL     1     -45.416  31.837  23.245  1.00  0.00     0.161 HD
BRANCH  19  21
ATOM     21  C   UNL     1     -46.629  30.180  23.415  1.00  0.00     0.005 C 
ATOM     22  H   UNL     1     -47.507  29.929  24.021  1.00  0.00     0.045 H 
ATOM     23  H   UNL     1     -46.984  30.441  22.412  1.00  0.00     0.045 H 
ATOM     24  H   UNL     1     -45.986  29.299  23.313  1.00  0.00     0.045 H 
ENDBRANCH  19  21
ENDBRANCH   5  19
ENDBRANCH   1   4
BRANCH   1  25
ATOM     25  C   UNL     1     -45.430  37.319  28.614  1.00  0.00    -0.022 C 
ATOM     26  H   UNL     1     -44.808  36.503  28.226  1.00  0.00     0.032 H 
ATOM     27  H   UNL     1     -45.801  36.971  29.586  1.00  0.00     0.032 H 
BRANCH  25  28
ATOM     28  C   UNL     1     -44.550  38.528  28.806  1.00  0.00    -0.027 A 
ATOM     29  C   UNL     1     -43.840  38.717  29.982  1.00  0.00     0.030 A 
ATOM     30  C   UNL     1     -44.440  39.511  27.812  1.00  0.00    -0.032 A 
ATOM     31  N   UNL     1     -43.042  39.780  30.212  1.00  0.00    -0.262 NA
ATOM     32  H   UNL     1     -43.894  38.004  30.800  1.00  0.00     0.084 H 
ATOM     33  C   UNL     1     -43.637  40.638  28.014  1.00  0.00     0.066 A 
ATOM     34  H   UNL     1     -45.011  39.366  26.901  1.00  0.00     0.065 H 
ATOM     35  C   UNL     1     -42.964  40.712  29.232  1.00  0.00     0.051 A 
ATOM     36  H   UNL     1     -42.305  41.531  29.499  1.00  0.00     0.086 H 
BRANCH  33  37
ATOM     37  N   UNL     1     -43.502  41.674  27.033  1.00  0.00    -0.297 N 
ATOM     38  C   UNL     1     -42.296  42.118  26.506  1.00  0.00     0.048 A 
ATOM     39  C   UNL     1     -44.519  42.428  26.425  1.00  0.00     0.153 A 
ATOM     40  C   UNL     1     -42.558  43.118  25.611  1.00  0.00     0.154 A 
ATOM     41  H   UNL     1     -41.342  41.713  26.805  1.00  0.00     0.085 H 
ATOM     42  C   UNL     1     -43.939  43.334  25.541  1.00  0.00     0.097 A 
ATOM     43  N   UNL     1     -45.849  42.312  26.629  1.00  0.00    -0.218 NA
ATOM     44  F   UNL     1     -41.629  43.776  24.911  1.00  0.00    -0.204 F 
ATOM     45  C   UNL     1     -44.789  44.189  24.830  1.00  0.00     0.139 A 
ATOM     46  C   UNL     1     -46.566  43.173  25.892  1.00  0.00     0.120 A 
ATOM     47  N   UNL     1     -46.117  44.087  25.015  1.00  0.00    -0.219 NA
ATOM     48  H   UNL     1     -47.643  43.126  26.017  1.00  0.00     0.106 H 
BRANCH  45  49
ATOM     49  N   UNL     1     -44.346  45.139  23.927  1.00  0.00    -0.383 N 
ATOM     50  H   UNL     1     -44.307  46.092  24.266  1.00  0.00     0.158 HD
ATOM     51  H   UNL     1     -43.561  44.808  23.380  1.00  0.00     0.158 HD
ENDBRANCH  45  49
ENDBRANCH  33  37
ENDBRANCH  25  28
ENDBRANCH   1  25
TORSDOF 7
ENDMDL
MODEL 4
REMARK VINA RESULT:      -9.7      3.037     10.689
REMARK SMILES CNc1ccc2ccc(CCc3cncc(-n4cc(F)c5c(N)ncnc54)c3)cc2n1
REMARK SMILES IDX 10 1 9 4 3 5 4 6 31 7 5 8 30 10 6 11 29 13 7 14 8 16 2 19
REMARK SMILES IDX 1 21 11 25 12 28 13 29 28 30 14 31 16 33 15 35 17 37 18 38
REMARK SMILES IDX 27 39 19 40 21 42 26 43 20 44 22 45 25 46 24 47 23 49
REMARK H PARENT 10 2 10 3 4 9 5 12 29 15 7 17 8 18 2 20 1 22 1 23 1 24 11 26
REMARK H PARENT 11 27 13 32 28 34 15 36 18 41 25 48 23 50 23 51
REMARK Flexibility Score: inf
ROOT
ATOM      1  C   UNL     1     -47.463  34.821  27.035  1.00  0.00    -0.024 C 
ATOM      2  H   UNL     1     -48.449  34.880  27.513  1.00  0.00     0.032 H 
ATOM      3  H   UNL     1     -47.338  35.771  26.499  1.00  0.00     0.032 H 
ENDROOT
BRANCH   1   4
ATOM      4  C   UNL     1     -47.451  33.702  26.021  1.00  0.00    -0.046 A 
ATOM      5  C   UNL     1     -49.781  30.135  23.871  1.00  0.00     0.126 A 
ATOM      6  C   UNL     1     -48.663  29.801  23.115  1.00  0.00    -0.019 A 
ATOM      7  N   UNL     1     -49.755  31.149  24.760  1.00  0.00    -0.231 NA
ATOM      8  C   UNL     1     -47.492  30.538  23.263  1.00  0.00    -0.049 A 
ATOM      9  H   UNL     1     -48.696  28.964  22.426  1.00  0.00     0.066 H 
ATOM     10  C   UNL     1     -48.625  31.864  24.910  1.00  0.00     0.073 A 
ATOM     11  C   UNL     1     -47.457  31.597  24.173  1.00  0.00     0.000 A 
ATOM     12  H   UNL     1     -46.619  30.276  22.674  1.00  0.00     0.063 H 
ATOM     13  C   UNL     1     -48.596  32.912  25.823  1.00  0.00    -0.032 A 
ATOM     14  C   UNL     1     -46.302  32.374  24.362  1.00  0.00    -0.053 A 
ATOM     15  H   UNL     1     -49.497  33.109  26.399  1.00  0.00     0.065 H 
ATOM     16  C   UNL     1     -46.301  33.422  25.281  1.00  0.00    -0.058 A 
ATOM     17  H   UNL     1     -45.398  32.166  23.793  1.00  0.00     0.063 H 
ATOM     18  H   UNL     1     -45.398  34.014  25.414  1.00  0.00     0.063 H 
BRANCH   5  19
ATOM     19  N   UNL     1     -50.939  29.352  23.711  1.00  0.00    -0.373 N 
ATOM     20  H   UNL     1     -50.840  28.504  24.261  1.00  0.00     0.161 HD
BRANCH  19  21
ATOM     21  C   UNL     1     -51.273  29.064  22.327  1.00  0.00     0.005 C 
ATOM     22  H   UNL     1     -52.107  28.357  22.250  1.00  0.00     0.045 H 
ATOM     23  H   UNL     1     -51.583  29.993  21.835  1.00  0.00     0.045 H 
ATOM     24  H   UNL     1     -50.409  28.677  21.776  1.00  0.00     0.045 H 
ENDBRANCH  19  21
ENDBRANCH   5  19
ENDBRANCH   1   4
BRANCH   1  25
ATOM     25  C   UNL     1     -46.359  34.698  28.094  1.00  0.00    -0.022 C 
ATOM     26  H   UNL     1     -45.446  34.324  27.614  1.00  0.00     0.032 H 
ATOM     27  H   UNL     1     -46.631  33.943  28.842  1.00  0.00     0.032 H 
BRANCH  25  28
ATOM     28  C   UNL     1     -46.028  36.000  28.778  1.00  0.00    -0.027 A 
ATOM     29  C   UNL     1     -46.279  36.182  30.130  1.00  0.00     0.030 A 
ATOM     30  C   UNL     1     -45.480  37.076  28.065  1.00  0.00    -0.032 A 
ATOM     31  N   UNL     1     -46.009  37.324  30.794  1.00  0.00    -0.262 NA
ATOM     32  H   UNL     1     -46.719  35.396  30.738  1.00  0.00     0.084 H 
ATOM     33  C   UNL     1     -45.199  38.285  28.710  1.00  0.00     0.066 A 
ATOM     34  H   UNL     1     -45.302  36.934  27.005  1.00  0.00     0.065 H 
ATOM     35  C   UNL     1     -45.485  38.344  30.072  1.00  0.00     0.051 A 
ATOM     36  H   UNL     1     -45.301  39.222  30.681  1.00  0.00     0.086 H 
BRANCH  33  37
ATOM     37  N   UNL     1     -44.650  39.416  28.023  1.00  0.00    -0.297 N 
ATOM     38  C   UNL     1     -45.080  39.881  26.787  1.00  0.00     0.048 A 
ATOM     39  C   UNL     1     -43.605  40.257  28.438  1.00  0.00     0.153 A 
ATOM     40  C   UNL     1     -44.320  40.965  26.445  1.00  0.00     0.154 A 
ATOM     41  H   UNL     1     -45.876  39.412  26.230  1.00  0.00     0.085 H 
ATOM     42  C   UNL     1     -43.389  41.222  27.457  1.00  0.00     0.097 A 
ATOM     43  N   UNL     1     -42.910  40.181  29.592  1.00  0.00    -0.218 NA
ATOM     44  F   UNL     1     -44.461  41.668  25.316  1.00  0.00    -0.204 F 
ATOM     45  C   UNL     1     -42.377  42.163  27.679  1.00  0.00     0.139 A 
ATOM     46  C   UNL     1     -41.973  41.135  29.701  1.00  0.00     0.120 A 
ATOM     47  N   UNL     1     -41.677  42.108  28.824  1.00  0.00    -0.219 NA
ATOM     48  H   UNL     1     -41.382  41.121  30.612  1.00  0.00     0.106 H 
BRANCH  45  49
ATOM     49  N   UNL     1     -42.054  43.170  26.785  1.00  0.00    -0.383 N 
ATOM     50  H   UNL     1     -42.723  43.342  26.046  1.00  0.00     0.158 HD
ATOM     51  H   UNL     1     -41.653  43.976  27.248  1.00  0.00     0.158 HD
ENDBRANCH  45  49
ENDBRANCH  33  37
ENDBRANCH  25  28
ENDBRANCH   1  25
TORSDOF 7
ENDMDL
MODEL 5
REMARK VINA RESULT:      -9.7      3.216     10.504
REMARK SMILES CNc1ccc2ccc(CCc3cncc(-n4cc(F)c5c(N)ncnc54)c3)cc2n1
REMARK SMILES IDX 10 1 9 4 3 5 4 6 31 7 5 8 30 10 6 11 29 13 7 14 8 16 2 19
REMARK SMILES IDX 1 21 11 25 12 28 13 29 28 30 14 31 16 33 15 35 17 37 18 38
REMARK SMILES IDX 27 39 19 40 21 42 26 43 20 44 22 45 25 46 24 47 23 49
REMARK H PARENT 10 2 10 3 4 9 5 12 29 15 7 17 8 18 2 20 1 22 1 23 1 24 11 26
REMARK H PARENT 11 27 13 32 28 34 15 36 18 41 25 48 23 50 23 51
REMARK Flexibility Score: inf
ROOT
ATOM      1  C   UNL     1     -47.092  34.084  27.392  1.00  0.00    -0.024 C 
ATOM      2  H   UNL     1     -46.400  33.533  28.042  1.00  0.00     0.032 H 
ATOM      3  H   UNL     1     -47.963  34.315  28.019  1.00  0.00     0.032 H 
ENDROOT
BRANCH   1   4
ATOM      4  C   UNL     1     -47.547  33.195  26.260  1.00  0.00    -0.046 A 
ATOM      5  C   UNL     1     -46.400  30.395  22.569  1.00  0.00     0.126 A 
ATOM      6  C   UNL     1     -47.738  30.166  22.269  1.00  0.00    -0.019 A 
ATOM      7  N   UNL     1     -46.032  31.188  23.596  1.00  0.00    -0.231 NA
ATOM      8  C   UNL     1     -48.726  30.752  23.055  1.00  0.00    -0.049 A 
ATOM      9  H   UNL     1     -48.013  29.548  21.421  1.00  0.00     0.066 H 
ATOM     10  C   UNL     1     -46.982  31.760  24.359  1.00  0.00     0.073 A 
ATOM     11  C   UNL     1     -48.357  31.566  24.128  1.00  0.00     0.000 A 
ATOM     12  H   UNL     1     -49.770  30.574  22.821  1.00  0.00     0.063 H 
ATOM     13  C   UNL     1     -46.607  32.575  25.420  1.00  0.00    -0.032 A 
ATOM     14  C   UNL     1     -49.311  32.182  24.955  1.00  0.00    -0.053 A 
ATOM     15  H   UNL     1     -45.543  32.732  25.589  1.00  0.00     0.065 H 
ATOM     16  C   UNL     1     -48.907  32.992  26.015  1.00  0.00    -0.058 A 
ATOM     17  H   UNL     1     -50.374  32.033  24.775  1.00  0.00     0.063 H 
ATOM     18  H   UNL     1     -49.660  33.459  26.646  1.00  0.00     0.063 H 
BRANCH   5  19
ATOM     19  N   UNL     1     -45.431  29.805  21.737  1.00  0.00    -0.373 N 
ATOM     20  H   UNL     1     -45.887  29.451  20.902  1.00  0.00     0.161 HD
BRANCH  19  21
ATOM     21  C   UNL     1     -44.631  28.783  22.391  1.00  0.00     0.005 C 
ATOM     22  H   UNL     1     -43.923  28.316  21.697  1.00  0.00     0.045 H 
ATOM     23  H   UNL     1     -44.047  29.249  23.193  1.00  0.00     0.045 H 
ATOM     24  H   UNL     1     -45.259  28.013  22.852  1.00  0.00     0.045 H 
ENDBRANCH  19  21
ENDBRANCH   5  19
ENDBRANCH   1   4
BRANCH   1  25
ATOM     25  C   UNL     1     -46.455  35.398  26.920  1.00  0.00    -0.022 C 
ATOM     26  H   UNL     1     -47.178  35.939  26.296  1.00  0.00     0.032 H 
ATOM     27  H   UNL     1     -45.597  35.192  26.267  1.00  0.00     0.032 H 
BRANCH  25  28
ATOM     28  C   UNL     1     -46.035  36.306  28.047  1.00  0.00    -0.027 A 
ATOM     29  C   UNL     1     -46.411  36.043  29.356  1.00  0.00     0.030 A 
ATOM     30  C   UNL     1     -45.274  37.458  27.805  1.00  0.00    -0.032 A 
ATOM     31  N   UNL     1     -46.070  36.821  30.403  1.00  0.00    -0.262 NA
ATOM     32  H   UNL     1     -47.016  35.178  29.611  1.00  0.00     0.084 H 
ATOM     33  C   UNL     1     -44.910  38.303  28.859  1.00  0.00     0.066 A 
ATOM     34  H   UNL     1     -44.997  37.668  26.778  1.00  0.00     0.065 H 
ATOM     35  C   UNL     1     -45.338  37.929  30.131  1.00  0.00     0.051 A 
ATOM     36  H   UNL     1     -45.110  38.497  31.026  1.00  0.00     0.086 H 
BRANCH  33  37
ATOM     37  N   UNL     1     -44.143  39.497  28.661  1.00  0.00    -0.297 N 
ATOM     38  C   UNL     1     -43.137  39.945  29.507  1.00  0.00     0.048 A 
ATOM     39  C   UNL     1     -44.243  40.426  27.612  1.00  0.00     0.153 A 
ATOM     40  C   UNL     1     -42.640  41.116  29.004  1.00  0.00     0.154 A 
ATOM     41  H   UNL     1     -42.851  39.421  30.405  1.00  0.00     0.085 H 
ATOM     42  C   UNL     1     -43.314  41.442  27.822  1.00  0.00     0.097 A 
ATOM     43  N   UNL     1     -45.081  40.371  26.555  1.00  0.00    -0.218 NA
ATOM     44  F   UNL     1     -41.655  41.827  29.563  1.00  0.00    -0.204 F 
ATOM     45  C   UNL     1     -43.255  42.478  26.883  1.00  0.00     0.139 A 
ATOM     46  C   UNL     1     -44.933  41.409  25.718  1.00  0.00     0.120 A 
ATOM     47  N   UNL     1     -44.078  42.439  25.820  1.00  0.00    -0.219 NA
ATOM     48  H   UNL     1     -45.584  41.417  24.849  1.00  0.00     0.106 H 
BRANCH  45  49
ATOM     49  N   UNL     1     -42.385  43.550  26.974  1.00  0.00    -0.383 N 
ATOM     50  H   UNL     1     -42.698  44.332  27.533  1.00  0.00     0.158 HD
ATOM     51  H   UNL     1     -41.424  43.252  27.087  1.00  0.00     0.158 HD
ENDBRANCH  45  49
ENDBRANCH  33  37
ENDBRANCH  25  28
ENDBRANCH   1  25
TORSDOF 7
ENDMDL
MODEL 6
REMARK VINA RESULT:      -9.6      3.612     11.058
REMARK SMILES CNc1ccc2ccc(CCc3cncc(-n4cc(F)c5c(N)ncnc54)c3)cc2n1
REMARK SMILES IDX 10 1 9 4 3 5 4 6 31 7 5 8 30 10 6 11 29 13 7 14 8 16 2 19
REMARK SMILES IDX 1 21 11 25 12 28 13 29 28 30 14 31 16 33 15 35 17 37 18 38
REMARK SMILES IDX 27 39 19 40 21 42 26 43 20 44 22 45 25 46 24 47 23 49
REMARK H PARENT 10 2 10 3 4 9 5 12 29 15 7 17 8 18 2 20 1 22 1 23 1 24 11 26
REMARK H PARENT 11 27 13 32 28 34 15 36 18 41 25 48 23 50 23 51
REMARK Flexibility Score: inf
ROOT
ATOM      1  C   UNL     1     -48.552  33.257  25.821  1.00  0.00    -0.024 C 
ATOM      2  H   UNL     1     -49.049  33.158  26.795  1.00  0.00     0.032 H 
ATOM      3  H   UNL     1     -49.285  33.744  25.165  1.00  0.00     0.032 H 
ENDROOT
BRANCH   1   4
ATOM      4  C   UNL     1     -48.251  31.888  25.259  1.00  0.00    -0.046 A 
ATOM      5  C   UNL     1     -48.500  27.147  25.739  1.00  0.00     0.126 A 
ATOM      6  C   UNL     1     -47.819  26.945  24.544  1.00  0.00    -0.019 A 
ATOM      7  N   UNL     1     -48.759  28.386  26.204  1.00  0.00    -0.231 NA
ATOM      8  C   UNL     1     -47.407  28.045  23.797  1.00  0.00    -0.049 A 
ATOM      9  H   UNL     1     -47.595  25.940  24.202  1.00  0.00     0.066 H 
ATOM     10  C   UNL     1     -48.362  29.454  25.487  1.00  0.00     0.073 A 
ATOM     11  C   UNL     1     -47.680  29.332  24.262  1.00  0.00     0.000 A 
ATOM     12  H   UNL     1     -46.875  27.887  22.864  1.00  0.00     0.063 H 
ATOM     13  C   UNL     1     -48.631  30.732  25.962  1.00  0.00    -0.032 A 
ATOM     14  C   UNL     1     -47.289  30.478  23.549  1.00  0.00    -0.053 A 
ATOM     15  H   UNL     1     -49.148  30.823  26.914  1.00  0.00     0.065 H 
ATOM     16  C   UNL     1     -47.574  31.749  24.045  1.00  0.00    -0.058 A 
ATOM     17  H   UNL     1     -46.760  30.384  22.603  1.00  0.00     0.063 H 
ATOM     18  H   UNL     1     -47.265  32.624  23.479  1.00  0.00     0.063 H 
BRANCH   5  19
ATOM     19  N   UNL     1     -48.879  26.011  26.479  1.00  0.00    -0.373 N 
ATOM     20  H   UNL     1     -49.307  26.314  27.349  1.00  0.00     0.161 HD
BRANCH  19  21
ATOM     21  C   UNL     1     -47.799  25.065  26.707  1.00  0.00     0.005 C 
ATOM     22  H   UNL     1     -47.705  24.351  25.881  1.00  0.00     0.045 H 
ATOM     23  H   UNL     1     -46.854  25.616  26.776  1.00  0.00     0.045 H 
ATOM     24  H   UNL     1     -47.929  24.525  27.651  1.00  0.00     0.045 H 
ENDBRANCH  19  21
ENDBRANCH   5  19
ENDBRANCH   1   4
BRANCH   1  25
ATOM     25  C   UNL     1     -47.314  34.156  25.939  1.00  0.00    -0.022 C 
ATOM     26  H   UNL     1     -46.941  34.381  24.931  1.00  0.00     0.032 H 
ATOM     27  H   UNL     1     -46.499  33.619  26.442  1.00  0.00     0.032 H 
BRANCH  25  28
ATOM     28  C   UNL     1     -47.578  35.461  26.643  1.00  0.00    -0.027 A 
ATOM     29  C   UNL     1     -48.802  35.716  27.245  1.00  0.00     0.030 A 
ATOM     30  C   UNL     1     -46.605  36.470  26.692  1.00  0.00    -0.032 A 
ATOM     31  N   UNL     1     -49.097  36.865  27.884  1.00  0.00    -0.262 NA
ATOM     32  H   UNL     1     -49.606  34.985  27.229  1.00  0.00     0.084 H 
ATOM     33  C   UNL     1     -46.873  37.685  27.331  1.00  0.00     0.066 A 
ATOM     34  H   UNL     1     -45.656  36.273  26.205  1.00  0.00     0.065 H 
ATOM     35  C   UNL     1     -48.134  37.819  27.907  1.00  0.00     0.051 A 
ATOM     36  H   UNL     1     -48.454  38.709  28.438  1.00  0.00     0.086 H 
BRANCH  33  37
ATOM     37  N   UNL     1     -45.916  38.749  27.397  1.00  0.00    -0.297 N 
ATOM     38  C   UNL     1     -45.784  39.759  26.453  1.00  0.00     0.048 A 
ATOM     39  C   UNL     1     -44.949  38.984  28.389  1.00  0.00     0.153 A 
ATOM     40  C   UNL     1     -44.765  40.584  26.843  1.00  0.00     0.154 A 
ATOM     41  H   UNL     1     -46.402  39.821  25.571  1.00  0.00     0.085 H 
ATOM     42  C   UNL     1     -44.224  40.123  28.048  1.00  0.00     0.097 A 
ATOM     43  N   UNL     1     -44.738  38.256  29.505  1.00  0.00    -0.218 NA
ATOM     44  F   UNL     1     -44.362  41.667  26.170  1.00  0.00    -0.204 F 
ATOM     45  C   UNL     1     -43.201  40.528  28.913  1.00  0.00     0.139 A 
ATOM     46  C   UNL     1     -43.741  38.739  30.262  1.00  0.00     0.120 A 
ATOM     47  N   UNL     1     -42.977  39.820  30.033  1.00  0.00    -0.219 NA
ATOM     48  H   UNL     1     -43.526  38.191  31.174  1.00  0.00     0.106 H 
BRANCH  45  49
ATOM     49  N   UNL     1     -42.400  41.635  28.692  1.00  0.00    -0.383 N 
ATOM     50  H   UNL     1     -41.405  41.496  28.807  1.00  0.00     0.158 HD
ATOM     51  H   UNL     1     -42.704  42.171  27.888  1.00  0.00     0.158 HD
ENDBRANCH  45  49
ENDBRANCH  33  37
ENDBRANCH  25  28
ENDBRANCH   1  25
TORSDOF 7
ENDMDL
MODEL 7
REMARK VINA RESULT:      -9.6      3.340     10.908
REMARK SMILES CNc1ccc2ccc(CCc3cncc(-n4cc(F)c5c(N)ncnc54)c3)cc2n1
REMARK SMILES IDX 10 1 9 4 3 5 4 6 31 7 5 8 30 10 6 11 29 13 7 14 8 16 2 19
REMARK SMILES IDX 1 21 11 25 12 28 13 29 28 30 14 31 16 33 15 35 17 37 18 38
REMARK SMILES IDX 27 39 19 40 21 42 26 43 20 44 22 45 25 46 24 47 23 49
REMARK H PARENT 10 2 10 3 4 9 5 12 29 15 7 17 8 18 2 20 1 22 1 23 1 24 11 26
REMARK H PARENT 11 27 13 32 28 34 15 36 18 41 25 48 23 50 23 51
REMARK Flexibility Score: inf
ROOT
ATOM      1  C   UNL     1     -48.190  34.036  26.421  1.00  0.00    -0.024 C 
ATOM      2  H   UNL     1     -49.004  33.782  27.113  1.00  0.00     0.032 H 
ATOM      3  H   UNL     1     -48.601  34.806  25.754  1.00  0.00     0.032 H 
ENDROOT
BRANCH   1   4
ATOM      4  C   UNL     1     -47.834  32.829  25.586  1.00  0.00    -0.046 A 
ATOM      5  C   UNL     1     -48.788  28.325  24.330  1.00  0.00     0.126 A 
ATOM      6  C   UNL     1     -47.692  28.285  23.474  1.00  0.00    -0.019 A 
ATOM      7  N   UNL     1     -49.079  29.426  25.051  1.00  0.00    -0.231 NA
ATOM      8  C   UNL     1     -46.885  29.410  23.343  1.00  0.00    -0.049 A 
ATOM      9  H   UNL     1     -47.458  27.380  22.924  1.00  0.00     0.066 H 
ATOM     10  C   UNL     1     -48.301  30.517  24.931  1.00  0.00     0.073 A 
ATOM     11  C   UNL     1     -47.183  30.560  24.077  1.00  0.00     0.000 A 
ATOM     12  H   UNL     1     -46.029  29.378  22.676  1.00  0.00     0.063 H 
ATOM     13  C   UNL     1     -48.601  31.655  25.671  1.00  0.00    -0.032 A 
ATOM     14  C   UNL     1     -46.403  31.724  23.983  1.00  0.00    -0.053 A 
ATOM     15  H   UNL     1     -49.459  31.615  26.338  1.00  0.00     0.065 H 
ATOM     16  C   UNL     1     -46.728  32.853  24.734  1.00  0.00    -0.058 A 
ATOM     17  H   UNL     1     -45.538  31.756  23.324  1.00  0.00     0.063 H 
ATOM     18  H   UNL     1     -46.114  33.746  24.647  1.00  0.00     0.063 H 
BRANCH   5  19
ATOM     19  N   UNL     1     -49.567  27.160  24.454  1.00  0.00    -0.373 N 
ATOM     20  H   UNL     1     -50.548  27.412  24.378  1.00  0.00     0.161 HD
BRANCH  19  21
ATOM     21  C   UNL     1     -49.297  26.392  25.658  1.00  0.00     0.005 C 
ATOM     22  H   UNL     1     -48.744  25.472  25.435  1.00  0.00     0.045 H 
ATOM     23  H   UNL     1     -48.677  26.994  26.331  1.00  0.00     0.045 H 
ATOM     24  H   UNL     1     -50.219  26.148  26.196  1.00  0.00     0.045 H 
ENDBRANCH  19  21
ENDBRANCH   5  19
ENDBRANCH   1   4
BRANCH   1  25
ATOM     25  C   UNL     1     -46.997  34.625  27.185  1.00  0.00    -0.022 C 
ATOM     26  H   UNL     1     -46.094  34.516  26.572  1.00  0.00     0.032 H 
ATOM     27  H   UNL     1     -46.807  34.047  28.098  1.00  0.00     0.032 H 
BRANCH  25  28
ATOM     28  C   UNL     1     -47.158  36.083  27.527  1.00  0.00    -0.027 A 
ATOM     29  C   UNL     1     -48.416  36.657  27.645  1.00  0.00     0.030 A 
ATOM     30  C   UNL     1     -46.043  36.913  27.714  1.00  0.00    -0.032 A 
ATOM     31  N   UNL     1     -48.621  37.956  27.944  1.00  0.00    -0.262 NA
ATOM     32  H   UNL     1     -49.321  36.077  27.496  1.00  0.00     0.084 H 
ATOM     33  C   UNL     1     -46.208  38.270  28.009  1.00  0.00     0.066 A 
ATOM     34  H   UNL     1     -45.062  36.463  27.604  1.00  0.00     0.065 H 
ATOM     35  C   UNL     1     -47.520  38.728  28.112  1.00  0.00     0.051 A 
ATOM     36  H   UNL     1     -47.774  39.756  28.347  1.00  0.00     0.086 H 
BRANCH  33  37
ATOM     37  N   UNL     1     -45.100  39.159  28.197  1.00  0.00    -0.297 N 
ATOM     38  C   UNL     1     -44.235  39.133  29.282  1.00  0.00     0.048 A 
ATOM     39  C   UNL     1     -44.674  40.200  27.356  1.00  0.00     0.153 A 
ATOM     40  C   UNL     1     -43.313  40.131  29.124  1.00  0.00     0.154 A 
ATOM     41  H   UNL     1     -44.335  38.430  30.094  1.00  0.00     0.085 H 
ATOM     42  C   UNL     1     -43.564  40.815  27.929  1.00  0.00     0.097 A 
ATOM     43  N   UNL     1     -45.218  40.566  26.176  1.00  0.00    -0.218 NA
ATOM     44  F   UNL     1     -42.323  40.396  29.982  1.00  0.00    -0.204 F 
ATOM     45  C   UNL     1     -42.985  41.889  27.244  1.00  0.00     0.139 A 
ATOM     46  C   UNL     1     -44.580  41.598  25.605  1.00  0.00     0.120 A 
ATOM     47  N   UNL     1     -43.509  42.265  26.064  1.00  0.00    -0.219 NA
ATOM     48  H   UNL     1     -44.976  41.936  24.652  1.00  0.00     0.106 H 
BRANCH  45  49
ATOM     49  N   UNL     1     -41.885  42.592  27.703  1.00  0.00    -0.383 N 
ATOM     50  H   UNL     1     -42.075  43.493  28.121  1.00  0.00     0.158 HD
ATOM     51  H   UNL     1     -41.219  41.992  28.174  1.00  0.00     0.158 HD
ENDBRANCH  45  49
ENDBRANCH  33  37
ENDBRANCH  25  28
ENDBRANCH   1  25
TORSDOF 7
ENDMDL
