MODEL 1
REMARK VINA RESULT:     -10.5      0.000      0.000
REMARK SMILES Cc1coc(-c2cn([C@@H]3O[C@H](COc4ccc5ccc(N6CCC6)nc5c4)[C@@H](O)[C@@H]3F)c3ncnc(N)c23)n1
REMARK SMILES IDX 9 1 10 2 11 3 28 4 30 5 31 6 8 11 6 12 7 13 38 14 32 16
REMARK SMILES IDX 36 17 33 18 35 19 34 20 5 22 2 23 3 24 39 25 4 26 1 28 37 32
REMARK SMILES IDX 12 35 13 38 14 39 15 40 27 41 16 42 26 44 17 46 25 48 18 49
REMARK SMILES IDX 20 50 19 51 21 54 22 55 24 56 23 57 29 64
REMARK H PARENT 9 7 11 8 28 9 30 10 7 15 34 21 3 27 1 29 1 30 1 31 37 33 37 34
REMARK H PARENT 12 36 12 37 15 43 27 45 16 47 18 52 19 53 22 58 22 59 24 60
REMARK H PARENT 24 61 23 62 23 63 29 65
REMARK Flexibility Score: inf
ROOT
ATOM      1  C   UNL     1     -44.801  37.970  29.086  1.00  0.00     0.169 C 
ATOM      2  O   UNL     1     -44.966  36.948  28.077  1.00  0.00    -0.345 OA
ATOM      3  C   UNL     1     -46.159  36.195  28.378  1.00  0.00     0.123 C 
ATOM      4  C   UNL     1     -46.658  36.655  29.751  1.00  0.00     0.119 C 
ATOM      5  C   UNL     1     -46.072  38.038  29.920  1.00  0.00     0.173 C 
ATOM      6  F   UNL     1     -46.951  38.957  29.437  1.00  0.00    -0.239 F 
ATOM      7  H   UNL     1     -43.950  37.648  29.697  1.00  0.00     0.088 H 
ATOM      8  H   UNL     1     -45.862  35.141  28.406  1.00  0.00     0.067 H 
ATOM      9  H   UNL     1     -47.748  36.641  29.839  1.00  0.00     0.066 H 
ATOM     10  H   UNL     1     -45.859  38.306  30.960  1.00  0.00     0.074 H 
ENDROOT
BRANCH   1  11
ATOM     11  N   UNL     1     -44.444  39.234  28.463  1.00  0.00    -0.302 N 
ATOM     12  C   UNL     1     -44.455  41.053  27.184  1.00  0.00     0.068 A 
ATOM     13  C   UNL     1     -45.058  39.830  27.391  1.00  0.00     0.022 A 
ATOM     14  C   UNL     1     -43.403  41.195  28.132  1.00  0.00     0.074 A 
ATOM     15  H   UNL     1     -45.887  39.358  26.880  1.00  0.00     0.083 H 
ATOM     16  C   UNL     1     -43.438  40.049  28.921  1.00  0.00     0.148 A 
ATOM     17  C   UNL     1     -42.418  42.142  28.456  1.00  0.00     0.137 A 
ATOM     18  N   UNL     1     -42.639  39.768  29.965  1.00  0.00    -0.218 NA
ATOM     19  N   UNL     1     -41.602  41.901  29.503  1.00  0.00    -0.219 NA
ATOM     20  C   UNL     1     -41.751  40.750  30.183  1.00  0.00     0.120 A 
ATOM     21  H   UNL     1     -41.066  40.599  31.012  1.00  0.00     0.106 H 
BRANCH  12  22
ATOM     22  C   UNL     1     -44.928  42.057  26.088  1.00  0.00     0.228 A 
ATOM     23  C   UNL     1     -44.942  43.294  24.346  1.00  0.00     0.076 A 
ATOM     24  C   UNL     1     -46.173  43.408  24.944  1.00  0.00     0.114 A 
ATOM     25  N   UNL     1     -44.163  42.432  25.078  1.00  0.00    -0.215 NA
ATOM     26  O   UNL     1     -46.183  42.619  26.051  1.00  0.00    -0.444 OA
ATOM     27  H   UNL     1     -47.079  43.957  24.733  1.00  0.00     0.106 H 
BRANCH  23  28
ATOM     28  C   UNL     1     -44.422  43.937  23.124  1.00  0.00    -0.019 C 
ATOM     29  H   UNL     1     -44.979  44.854  22.911  1.00  0.00     0.030 H 
ATOM     30  H   UNL     1     -44.511  43.274  22.257  1.00  0.00     0.030 H 
ATOM     31  H   UNL     1     -43.366  44.195  23.249  1.00  0.00     0.030 H 
ENDBRANCH  23  28
ENDBRANCH  12  22
BRANCH  17  32
ATOM     32  N   UNL     1     -42.215  43.328  27.776  1.00  0.00    -0.383 N 
ATOM     33  H   UNL     1     -41.603  43.211  26.979  1.00  0.00     0.158 HD
ATOM     34  H   UNL     1     -42.095  44.159  28.344  1.00  0.00     0.158 HD
ENDBRANCH  17  32
ENDBRANCH   1  11
BRANCH   3  35
ATOM     35  C   UNL     1     -47.166  36.376  27.232  1.00  0.00     0.117 C 
ATOM     36  H   UNL     1     -48.128  35.955  27.549  1.00  0.00     0.073 H 
ATOM     37  H   UNL     1     -47.278  37.444  27.016  1.00  0.00     0.073 H 
BRANCH  35  38
ATOM     38  O   UNL     1     -46.699  35.713  26.059  1.00  0.00    -0.491 OA
BRANCH  38  39
ATOM     39  C   UNL     1     -47.220  34.475  25.806  1.00  0.00     0.121 A 
ATOM     40  C   UNL     1     -48.486  34.251  26.341  1.00  0.00    -0.019 A 
ATOM     41  C   UNL     1     -46.583  33.458  25.093  1.00  0.00     0.007 A 
ATOM     42  C   UNL     1     -49.123  33.030  26.138  1.00  0.00    -0.049 A 
ATOM     43  H   UNL     1     -48.986  35.039  26.900  1.00  0.00     0.066 H 
ATOM     44  C   UNL     1     -47.193  32.227  24.882  1.00  0.00     0.076 A 
ATOM     45  H   UNL     1     -45.586  33.594  24.688  1.00  0.00     0.069 H 
ATOM     46  C   UNL     1     -48.482  32.017  25.410  1.00  0.00     0.001 A 
ATOM     47  H   UNL     1     -50.120  32.880  26.546  1.00  0.00     0.063 H 
ATOM     48  N   UNL     1     -46.536  31.282  24.186  1.00  0.00    -0.231 NA
ATOM     49  C   UNL     1     -49.085  30.779  25.181  1.00  0.00    -0.049 A 
ATOM     50  C   UNL     1     -47.126  30.083  23.976  1.00  0.00     0.129 A 
ATOM     51  C   UNL     1     -48.402  29.807  24.456  1.00  0.00    -0.019 A 
ATOM     52  H   UNL     1     -50.081  30.565  25.558  1.00  0.00     0.063 H 
ATOM     53  H   UNL     1     -48.871  28.849  24.263  1.00  0.00     0.066 H 
BRANCH  50  54
ATOM     54  N   UNL     1     -46.430  29.110  23.234  1.00  0.00    -0.356 N 
ATOM     55  C   UNL     1     -46.038  27.808  23.691  1.00  0.00     0.021 C 
ATOM     56  C   UNL     1     -45.168  29.337  22.588  1.00  0.00     0.021 C 
ATOM     57  C   UNL     1     -45.017  27.813  22.548  1.00  0.00    -0.018 C 
ATOM     58  H   UNL     1     -46.829  27.060  23.615  1.00  0.00     0.049 H 
ATOM     59  H   UNL     1     -45.606  27.821  24.697  1.00  0.00     0.049 H 
ATOM     60  H   UNL     1     -44.445  29.855  23.227  1.00  0.00     0.049 H 
ATOM     61  H   UNL     1     -45.257  29.833  21.619  1.00  0.00     0.049 H 
ATOM     62  H   UNL     1     -45.372  27.347  21.622  1.00  0.00     0.030 H 
ATOM     63  H   UNL     1     -44.025  27.426  22.794  1.00  0.00     0.030 H 
ENDBRANCH  50  54
ENDBRANCH  38  39
ENDBRANCH  35  38
ENDBRANCH   3  35
BRANCH   4  64
ATOM     64  O   UNL     1     -46.127  35.806  30.781  1.00  0.00    -0.387 OA
ATOM     65  H   UNL     1     -46.782  35.108  30.958  1.00  0.00     0.211 HD
ENDBRANCH   4  64
TORSDOF 9
ENDMDL
MODEL 2
REMARK VINA RESULT:      -9.3      2.821      3.848
REMARK SMILES Cc1coc(-c2cn([C@@H]3O[C@H](COc4ccc5ccc(N6CCC6)nc5c4)[C@@H](O)[C@@H]3F)c3ncnc(N)c23)n1
REMARK SMILES IDX 9 1 10 2 11 3 28 4 30 5 31 6 8 11 6 12 7 13 38 14 32 16
REMARK SMILES IDX 36 17 33 18 35 19 34 20 5 22 2 23 3 24 39 25 4 26 1 28 37 32
REMARK SMILES IDX 12 35 13 38 14 39 15 40 27 41 16 42 26 44 17 46 25 48 18 49
REMARK SMILES IDX 20 50 19 51 21 54 22 55 24 56 23 57 29 64
REMARK H PARENT 9 7 11 8 28 9 30 10 7 15 34 21 3 27 1 29 1 30 1 31 37 33 37 34
REMARK H PARENT 12 36 12 37 15 43 27 45 16 47 18 52 19 53 22 58 22 59 24 60
REMARK H PARENT 24 61 23 62 23 63 29 65
REMARK Flexibility Score: inf
ROOT
ATOM      1  C   UNL     1     -46.270  37.478  28.254  1.00  0.00     0.169 C 
ATOM      2  O   UNL     1     -45.622  36.665  27.250  1.00  0.00    -0.345 OA
ATOM      3  C   UNL     1     -46.132  35.320  27.352  1.00  0.00     0.123 C 
ATOM      4  C   UNL     1     -47.006  35.253  28.608  1.00  0.00     0.119 C 
ATOM      5  C   UNL     1     -47.423  36.686  28.852  1.00  0.00     0.173 C 
ATOM      6  F   UNL     1     -48.596  36.924  28.206  1.00  0.00    -0.239 F 
ATOM      7  H   UNL     1     -45.504  37.683  29.010  1.00  0.00     0.088 H 
ATOM      8  H   UNL     1     -45.260  34.664  27.450  1.00  0.00     0.067 H 
ATOM      9  H   UNL     1     -47.857  34.573  28.503  1.00  0.00     0.066 H 
ATOM     10  H   UNL     1     -47.577  36.929  29.908  1.00  0.00     0.074 H 
ENDROOT
BRANCH   1  11
ATOM     11  N   UNL     1     -46.674  38.752  27.680  1.00  0.00    -0.302 N 
ATOM     12  C   UNL     1     -47.874  40.511  27.041  1.00  0.00     0.068 A 
ATOM     13  C   UNL     1     -47.952  39.237  27.563  1.00  0.00     0.022 A 
ATOM     14  C   UNL     1     -46.505  40.804  26.785  1.00  0.00     0.074 A 
ATOM     15  H   UNL     1     -48.808  38.657  27.882  1.00  0.00     0.083 H 
ATOM     16  C   UNL     1     -45.787  39.689  27.211  1.00  0.00     0.148 A 
ATOM     17  C   UNL     1     -45.750  41.865  26.262  1.00  0.00     0.137 A 
ATOM     18  N   UNL     1     -44.452  39.537  27.186  1.00  0.00    -0.218 NA
ATOM     19  N   UNL     1     -44.406  41.753  26.227  1.00  0.00    -0.219 NA
ATOM     20  C   UNL     1     -43.843  40.619  26.677  1.00  0.00     0.120 A 
ATOM     21  H   UNL     1     -42.758  40.575  26.622  1.00  0.00     0.106 H 
BRANCH  12  22
ATOM     22  C   UNL     1     -49.126  41.417  26.824  1.00  0.00     0.228 A 
ATOM     23  C   UNL     1     -51.070  42.274  27.056  1.00  0.00     0.076 A 
ATOM     24  C   UNL     1     -50.432  42.960  26.051  1.00  0.00     0.114 A 
ATOM     25  N   UNL     1     -50.230  41.301  27.541  1.00  0.00    -0.215 NA
ATOM     26  O   UNL     1     -49.189  42.430  25.897  1.00  0.00    -0.444 OA
ATOM     27  H   UNL     1     -50.693  43.779  25.399  1.00  0.00     0.106 H 
BRANCH  23  28
ATOM     28  C   UNL     1     -52.425  42.454  27.611  1.00  0.00    -0.019 C 
ATOM     29  H   UNL     1     -53.043  43.035  26.921  1.00  0.00     0.030 H 
ATOM     30  H   UNL     1     -52.394  42.981  28.570  1.00  0.00     0.030 H 
ATOM     31  H   UNL     1     -52.903  41.483  27.770  1.00  0.00     0.030 H 
ENDBRANCH  23  28
ENDBRANCH  12  22
BRANCH  17  32
ATOM     32  N   UNL     1     -46.284  43.042  25.770  1.00  0.00    -0.383 N 
ATOM     33  H   UNL     1     -45.581  43.757  25.645  1.00  0.00     0.158 HD
ATOM     34  H   UNL     1     -47.181  43.323  26.149  1.00  0.00     0.158 HD
ENDBRANCH  17  32
ENDBRANCH   1  11
BRANCH   3  35
ATOM     35  C   UNL     1     -46.854  34.960  26.043  1.00  0.00     0.117 C 
ATOM     36  H   UNL     1     -47.353  35.861  25.667  1.00  0.00     0.073 H 
ATOM     37  H   UNL     1     -46.118  34.607  25.312  1.00  0.00     0.073 H 
BRANCH  35  38
ATOM     38  O   UNL     1     -47.808  33.927  26.277  1.00  0.00    -0.491 OA
BRANCH  38  39
ATOM     39  C   UNL     1     -47.622  32.755  25.600  1.00  0.00     0.121 A 
ATOM     40  C   UNL     1     -46.682  32.813  24.573  1.00  0.00    -0.019 A 
ATOM     41  C   UNL     1     -48.300  31.559  25.846  1.00  0.00     0.007 A 
ATOM     42  C   UNL     1     -46.400  31.676  23.820  1.00  0.00    -0.049 A 
ATOM     43  H   UNL     1     -46.154  33.743  24.374  1.00  0.00     0.066 H 
ATOM     44  C   UNL     1     -48.042  30.412  25.106  1.00  0.00     0.076 A 
ATOM     45  H   UNL     1     -49.056  31.492  26.621  1.00  0.00     0.069 H 
ATOM     46  C   UNL     1     -47.076  30.476  24.083  1.00  0.00     0.001 A 
ATOM     47  H   UNL     1     -45.648  31.735  23.037  1.00  0.00     0.063 H 
ATOM     48  N   UNL     1     -48.721  29.286  25.386  1.00  0.00    -0.231 NA
ATOM     49  C   UNL     1     -46.822  29.312  23.355  1.00  0.00    -0.049 A 
ATOM     50  C   UNL     1     -48.474  28.166  24.669  1.00  0.00     0.129 A 
ATOM     51  C   UNL     1     -47.525  28.149  23.652  1.00  0.00    -0.019 A 
ATOM     52  H   UNL     1     -46.081  29.302  22.560  1.00  0.00     0.063 H 
ATOM     53  H   UNL     1     -47.322  27.240  23.099  1.00  0.00     0.066 H 
BRANCH  50  54
ATOM     54  N   UNL     1     -49.184  26.992  24.985  1.00  0.00    -0.356 N 
ATOM     55  C   UNL     1     -50.490  26.918  25.573  1.00  0.00     0.021 C 
ATOM     56  C   UNL     1     -48.675  25.941  25.821  1.00  0.00     0.021 C 
ATOM     57  C   UNL     1     -50.129  25.484  25.977  1.00  0.00    -0.018 C 
ATOM     58  H   UNL     1     -51.303  27.015  24.850  1.00  0.00     0.049 H 
ATOM     59  H   UNL     1     -50.624  27.614  26.408  1.00  0.00     0.049 H 
ATOM     60  H   UNL     1     -48.207  26.311  26.740  1.00  0.00     0.049 H 
ATOM     61  H   UNL     1     -48.011  25.250  25.296  1.00  0.00     0.049 H 
ATOM     62  H   UNL     1     -50.443  24.719  25.259  1.00  0.00     0.030 H 
ATOM     63  H   UNL     1     -50.428  25.184  26.985  1.00  0.00     0.030 H 
ENDBRANCH  50  54
ENDBRANCH  38  39
ENDBRANCH  35  38
ENDBRANCH   3  35
BRANCH   4  64
ATOM     64  O   UNL     1     -46.227  34.808  29.729  1.00  0.00    -0.387 OA
ATOM     65  H   UNL     1     -45.755  33.999  29.462  1.00  0.00     0.211 HD
ENDBRANCH   4  64
TORSDOF 9
ENDMDL
MODEL 3
REMARK VINA RESULT:      -9.3      1.917      2.466
REMARK SMILES Cc1coc(-c2cn([C@@H]3O[C@H](COc4ccc5ccc(N6CCC6)nc5c4)[C@@H](O)[C@@H]3F)c3ncnc(N)c23)n1
REMARK SMILES IDX 9 1 10 2 11 3 28 4 30 5 31 6 8 11 6 12 7 13 38 14 32 16
REMARK SMILES IDX 36 17 33 18 35 19 34 20 5 22 2 23 3 24 39 25 4 26 1 28 37 32
REMARK SMILES IDX 12 35 13 38 14 39 15 40 27 41 16 42 26 44 17 46 25 48 18 49
REMARK SMILES IDX 20 50 19 51 21 54 22 55 24 56 23 57 29 64
REMARK H PARENT 9 7 11 8 28 9 30 10 7 15 34 21 3 27 1 29 1 30 1 31 37 33 37 34
REMARK H PARENT 12 36 12 37 15 43 27 45 16 47 18 52 19 53 22 58 22 59 24 60
REMARK H PARENT 24 61 23 62 23 63 29 65
REMARK Flexibility Score: inf
ROOT
ATOM      1  C   UNL     1     -46.778  38.319  28.597  1.00  0.00     0.169 C 
ATOM      2  O   UNL     1     -46.156  37.163  29.201  1.00  0.00    -0.345 OA
ATOM      3  C   UNL     1     -46.819  35.979  28.712  1.00  0.00     0.123 C 
ATOM      4  C   UNL     1     -48.039  36.435  27.906  1.00  0.00     0.119 C 
ATOM      5  C   UNL     1     -47.705  37.848  27.486  1.00  0.00     0.173 C 
ATOM      6  F   UNL     1     -47.081  37.817  26.278  1.00  0.00    -0.239 F 
ATOM      7  H   UNL     1     -47.346  38.804  29.399  1.00  0.00     0.088 H 
ATOM      8  H   UNL     1     -47.128  35.409  29.596  1.00  0.00     0.067 H 
ATOM      9  H   UNL     1     -48.263  35.780  27.059  1.00  0.00     0.066 H 
ATOM     10  H   UNL     1     -48.579  38.499  27.385  1.00  0.00     0.074 H 
ENDROOT
BRANCH   1  11
ATOM     11  N   UNL     1     -45.761  39.257  28.148  1.00  0.00    -0.302 N 
ATOM     12  C   UNL     1     -44.685  40.862  27.049  1.00  0.00     0.068 A 
ATOM     13  C   UNL     1     -45.824  40.085  27.056  1.00  0.00     0.022 A 
ATOM     14  C   UNL     1     -43.871  40.468  28.147  1.00  0.00     0.074 A 
ATOM     15  H   UNL     1     -46.677  40.078  26.390  1.00  0.00     0.083 H 
ATOM     16  C   UNL     1     -44.582  39.476  28.818  1.00  0.00     0.148 A 
ATOM     17  C   UNL     1     -42.626  40.814  28.694  1.00  0.00     0.137 A 
ATOM     18  N   UNL     1     -44.205  38.835  29.937  1.00  0.00    -0.218 NA
ATOM     19  N   UNL     1     -42.215  40.199  29.823  1.00  0.00    -0.219 NA
ATOM     20  C   UNL     1     -43.008  39.260  30.368  1.00  0.00     0.120 A 
ATOM     21  H   UNL     1     -42.630  38.789  31.271  1.00  0.00     0.106 H 
BRANCH  12  22
ATOM     22  C   UNL     1     -44.427  41.978  25.990  1.00  0.00     0.228 A 
ATOM     23  C   UNL     1     -43.979  43.876  25.116  1.00  0.00     0.076 A 
ATOM     24  C   UNL     1     -44.156  42.980  24.090  1.00  0.00     0.114 A 
ATOM     25  N   UNL     1     -44.150  43.228  26.315  1.00  0.00    -0.215 NA
ATOM     26  O   UNL     1     -44.434  41.763  24.631  1.00  0.00    -0.444 OA
ATOM     27  H   UNL     1     -44.123  43.034  23.012  1.00  0.00     0.106 H 
BRANCH  23  28
ATOM     28  C   UNL     1     -43.659  45.316  25.068  1.00  0.00    -0.019 C 
ATOM     29  H   UNL     1     -44.225  45.855  25.834  1.00  0.00     0.030 H 
ATOM     30  H   UNL     1     -43.906  45.745  24.093  1.00  0.00     0.030 H 
ATOM     31  H   UNL     1     -42.593  45.474  25.252  1.00  0.00     0.030 H 
ENDBRANCH  23  28
ENDBRANCH  12  22
BRANCH  17  32
ATOM     32  N   UNL     1     -41.768  41.758  28.160  1.00  0.00    -0.383 N 
ATOM     33  H   UNL     1     -40.798  41.483  28.242  1.00  0.00     0.158 HD
ATOM     34  H   UNL     1     -41.999  42.729  28.336  1.00  0.00     0.158 HD
ENDBRANCH  17  32
ENDBRANCH   1  11
BRANCH   3  35
ATOM     35  C   UNL     1     -45.808  35.129  27.927  1.00  0.00     0.117 C 
ATOM     36  H   UNL     1     -45.854  35.426  26.872  1.00  0.00     0.073 H 
ATOM     37  H   UNL     1     -44.802  35.309  28.323  1.00  0.00     0.073 H 
BRANCH  35  38
ATOM     38  O   UNL     1     -46.120  33.744  28.064  1.00  0.00    -0.491 OA
BRANCH  38  39
ATOM     39  C   UNL     1     -46.548  33.097  26.939  1.00  0.00     0.121 A 
ATOM     40  C   UNL     1     -46.143  33.677  25.739  1.00  0.00    -0.019 A 
ATOM     41  C   UNL     1     -47.349  31.954  26.917  1.00  0.00     0.007 A 
ATOM     42  C   UNL     1     -46.510  33.100  24.526  1.00  0.00    -0.049 A 
ATOM     43  H   UNL     1     -45.522  34.570  25.751  1.00  0.00     0.066 H 
ATOM     44  C   UNL     1     -47.735  31.362  25.720  1.00  0.00     0.076 A 
ATOM     45  H   UNL     1     -47.702  31.497  27.835  1.00  0.00     0.069 H 
ATOM     46  C   UNL     1     -47.304  31.943  24.512  1.00  0.00     0.001 A 
ATOM     47  H   UNL     1     -46.167  33.553  23.600  1.00  0.00     0.063 H 
ATOM     48  N   UNL     1     -48.505  30.260  25.755  1.00  0.00    -0.231 NA
ATOM     49  C   UNL     1     -47.692  31.331  23.320  1.00  0.00    -0.049 A 
ATOM     50  C   UNL     1     -48.884  29.678  24.594  1.00  0.00     0.129 A 
ATOM     51  C   UNL     1     -48.485  30.188  23.362  1.00  0.00    -0.019 A 
ATOM     52  H   UNL     1     -47.382  31.732  22.359  1.00  0.00     0.063 H 
ATOM     53  H   UNL     1     -48.779  29.700  22.440  1.00  0.00     0.066 H 
BRANCH  50  54
ATOM     54  N   UNL     1     -49.678  28.517  24.648  1.00  0.00    -0.356 N 
ATOM     55  C   UNL     1     -49.603  27.478  25.635  1.00  0.00     0.021 C 
ATOM     56  C   UNL     1     -49.809  27.576  23.572  1.00  0.00     0.021 C 
ATOM     57  C   UNL     1     -50.324  26.585  24.620  1.00  0.00    -0.018 C 
ATOM     58  H   UNL     1     -50.159  27.700  26.548  1.00  0.00     0.049 H 
ATOM     59  H   UNL     1     -48.575  27.181  25.865  1.00  0.00     0.049 H 
ATOM     60  H   UNL     1     -48.849  27.308  23.116  1.00  0.00     0.049 H 
ATOM     61  H   UNL     1     -50.529  27.883  22.810  1.00  0.00     0.049 H 
ATOM     62  H   UNL     1     -51.414  26.566  24.727  1.00  0.00     0.030 H 
ATOM     63  H   UNL     1     -49.948  25.563  24.534  1.00  0.00     0.030 H 
ENDBRANCH  50  54
ENDBRANCH  38  39
ENDBRANCH  35  38
ENDBRANCH   3  35
BRANCH   4  64
ATOM     64  O   UNL     1     -49.202  36.473  28.748  1.00  0.00    -0.387 OA
ATOM     65  H   UNL     1     -49.375  35.566  29.059  1.00  0.00     0.211 HD
ENDBRANCH   4  64
TORSDOF 9
ENDMDL
MODEL 4
REMARK VINA RESULT:      -9.3      3.903      8.659
REMARK SMILES Cc1coc(-c2cn([C@@H]3O[C@H](COc4ccc5ccc(N6CCC6)nc5c4)[C@@H](O)[C@@H]3F)c3ncnc(N)c23)n1
REMARK SMILES IDX 9 1 10 2 11 3 28 4 30 5 31 6 8 11 6 12 7 13 38 14 32 16
REMARK SMILES IDX 36 17 33 18 35 19 34 20 5 22 2 23 3 24 39 25 4 26 1 28 37 32
REMARK SMILES IDX 12 35 13 38 14 39 15 40 27 41 16 42 26 44 17 46 25 48 18 49
REMARK SMILES IDX 20 50 19 51 21 54 22 55 24 56 23 57 29 64
REMARK H PARENT 9 7 11 8 28 9 30 10 7 15 34 21 3 27 1 29 1 30 1 31 37 33 37 34
REMARK H PARENT 12 36 12 37 15 43 27 45 16 47 18 52 19 53 22 58 22 59 24 60
REMARK H PARENT 24 61 23 62 23 63 29 65
REMARK Flexibility Score: inf
ROOT
ATOM      1  C   UNL     1     -48.413  36.178  27.570  1.00  0.00     0.169 C 
ATOM      2  O   UNL     1     -47.748  35.709  28.764  1.00  0.00    -0.345 OA
ATOM      3  C   UNL     1     -46.484  35.126  28.385  1.00  0.00     0.123 C 
ATOM      4  C   UNL     1     -46.447  35.063  26.855  1.00  0.00     0.119 C 
ATOM      5  C   UNL     1     -47.428  36.125  26.412  1.00  0.00     0.173 C 
ATOM      6  F   UNL     1     -46.766  37.303  26.250  1.00  0.00    -0.239 F 
ATOM      7  H   UNL     1     -49.248  35.487  27.404  1.00  0.00     0.088 H 
ATOM      8  H   UNL     1     -46.464  34.119  28.816  1.00  0.00     0.067 H 
ATOM      9  H   UNL     1     -45.444  35.211  26.443  1.00  0.00     0.066 H 
ATOM     10  H   UNL     1     -47.928  35.900  25.465  1.00  0.00     0.074 H 
ENDROOT
BRANCH   1  11
ATOM     11  N   UNL     1     -48.974  37.501  27.798  1.00  0.00    -0.302 N 
ATOM     12  C   UNL     1     -49.348  39.691  27.737  1.00  0.00     0.068 A 
ATOM     13  C   UNL     1     -48.457  38.700  27.382  1.00  0.00     0.022 A 
ATOM     14  C   UNL     1     -50.429  39.086  28.437  1.00  0.00     0.074 A 
ATOM     15  H   UNL     1     -47.518  38.756  26.846  1.00  0.00     0.083 H 
ATOM     16  C   UNL     1     -50.168  37.718  28.441  1.00  0.00     0.148 A 
ATOM     17  C   UNL     1     -51.617  39.492  29.066  1.00  0.00     0.137 A 
ATOM     18  N   UNL     1     -50.943  36.754  28.968  1.00  0.00    -0.218 NA
ATOM     19  N   UNL     1     -52.425  38.554  29.601  1.00  0.00    -0.219 NA
ATOM     20  C   UNL     1     -52.050  37.265  29.529  1.00  0.00     0.120 A 
ATOM     21  H   UNL     1     -52.731  36.548  29.979  1.00  0.00     0.106 H 
BRANCH  12  22
ATOM     22  C   UNL     1     -49.137  41.193  27.372  1.00  0.00     0.228 A 
ATOM     23  C   UNL     1     -48.316  42.974  26.523  1.00  0.00     0.076 A 
ATOM     24  C   UNL     1     -49.438  43.332  27.232  1.00  0.00     0.114 A 
ATOM     25  N   UNL     1     -48.138  41.616  26.617  1.00  0.00    -0.215 NA
ATOM     26  O   UNL     1     -49.977  42.206  27.772  1.00  0.00    -0.444 OA
ATOM     27  H   UNL     1     -49.950  44.260  27.437  1.00  0.00     0.106 H 
BRANCH  23  28
ATOM     28  C   UNL     1     -47.378  43.813  25.752  1.00  0.00    -0.019 C 
ATOM     29  H   UNL     1     -47.096  44.697  26.332  1.00  0.00     0.030 H 
ATOM     30  H   UNL     1     -47.826  44.148  24.812  1.00  0.00     0.030 H 
ATOM     31  H   UNL     1     -46.471  43.250  25.517  1.00  0.00     0.030 H 
ENDBRANCH  23  28
ENDBRANCH  12  22
BRANCH  17  32
ATOM     32  N   UNL     1     -52.034  40.805  29.183  1.00  0.00    -0.383 N 
ATOM     33  H   UNL     1     -51.633  41.263  29.990  1.00  0.00     0.158 HD
ATOM     34  H   UNL     1     -53.009  40.988  28.973  1.00  0.00     0.158 HD
ENDBRANCH  17  32
ENDBRANCH   1  11
BRANCH   3  35
ATOM     35  C   UNL     1     -45.348  35.940  29.025  1.00  0.00     0.117 C 
ATOM     36  H   UNL     1     -44.998  35.400  29.914  1.00  0.00     0.073 H 
ATOM     37  H   UNL     1     -44.529  36.044  28.305  1.00  0.00     0.073 H 
BRANCH  35  38
ATOM     38  O   UNL     1     -45.816  37.236  29.387  1.00  0.00    -0.491 OA
BRANCH  38  39
ATOM     39  C   UNL     1     -44.923  38.264  29.279  1.00  0.00     0.121 A 
ATOM     40  C   UNL     1     -44.007  38.358  30.323  1.00  0.00    -0.019 A 
ATOM     41  C   UNL     1     -44.885  39.200  28.243  1.00  0.00     0.007 A 
ATOM     42  C   UNL     1     -43.040  39.360  30.316  1.00  0.00    -0.049 A 
ATOM     43  H   UNL     1     -44.034  37.635  31.135  1.00  0.00     0.066 H 
ATOM     44  C   UNL     1     -43.935  40.213  28.214  1.00  0.00     0.076 A 
ATOM     45  H   UNL     1     -45.603  39.168  27.430  1.00  0.00     0.069 H 
ATOM     46  C   UNL     1     -43.000  40.288  29.264  1.00  0.00     0.001 A 
ATOM     47  H   UNL     1     -42.319  39.405  31.129  1.00  0.00     0.063 H 
ATOM     48  N   UNL     1     -43.941  41.087  27.191  1.00  0.00    -0.231 NA
ATOM     49  C   UNL     1     -42.046  41.306  29.216  1.00  0.00    -0.049 A 
ATOM     50  C   UNL     1     -43.018  42.075  27.157  1.00  0.00     0.129 A 
ATOM     51  C   UNL     1     -42.055  42.204  28.153  1.00  0.00    -0.019 A 
ATOM     52  H   UNL     1     -41.296  41.406  29.996  1.00  0.00     0.063 H 
ATOM     53  H   UNL     1     -41.309  42.988  28.103  1.00  0.00     0.066 H 
BRANCH  50  54
ATOM     54  N   UNL     1     -43.029  42.972  26.073  1.00  0.00    -0.356 N 
ATOM     55  C   UNL     1     -43.853  42.884  24.902  1.00  0.00     0.021 C 
ATOM     56  C   UNL     1     -41.868  43.330  25.308  1.00  0.00     0.021 C 
ATOM     57  C   UNL     1     -42.839  43.812  24.226  1.00  0.00    -0.018 C 
ATOM     58  H   UNL     1     -44.855  43.297  25.039  1.00  0.00     0.049 H 
ATOM     59  H   UNL     1     -43.901  41.871  24.488  1.00  0.00     0.049 H 
ATOM     60  H   UNL     1     -41.255  42.467  25.027  1.00  0.00     0.049 H 
ATOM     61  H   UNL     1     -41.257  44.104  25.781  1.00  0.00     0.049 H 
ATOM     62  H   UNL     1     -43.090  44.877  24.285  1.00  0.00     0.030 H 
ATOM     63  H   UNL     1     -42.571  43.556  23.198  1.00  0.00     0.030 H 
ENDBRANCH  50  54
ENDBRANCH  38  39
ENDBRANCH  35  38
ENDBRANCH   3  35
BRANCH   4  64
ATOM     64  O   UNL     1     -46.922  33.787  26.401  1.00  0.00    -0.387 OA
ATOM     65  H   UNL     1     -47.387  33.360  27.143  1.00  0.00     0.211 HD
ENDBRANCH   4  64
TORSDOF 9
ENDMDL
MODEL 5
REMARK VINA RESULT:      -9.0      1.849      2.086
REMARK SMILES Cc1coc(-c2cn([C@@H]3O[C@H](COc4ccc5ccc(N6CCC6)nc5c4)[C@@H](O)[C@@H]3F)c3ncnc(N)c23)n1
REMARK SMILES IDX 9 1 10 2 11 3 28 4 30 5 31 6 8 11 6 12 7 13 38 14 32 16
REMARK SMILES IDX 36 17 33 18 35 19 34 20 5 22 2 23 3 24 39 25 4 26 1 28 37 32
REMARK SMILES IDX 12 35 13 38 14 39 15 40 27 41 16 42 26 44 17 46 25 48 18 49
REMARK SMILES IDX 20 50 19 51 21 54 22 55 24 56 23 57 29 64
REMARK H PARENT 9 7 11 8 28 9 30 10 7 15 34 21 3 27 1 29 1 30 1 31 37 33 37 34
REMARK H PARENT 12 36 12 37 15 43 27 45 16 47 18 52 19 53 22 58 22 59 24 60
REMARK H PARENT 24 61 23 62 23 63 29 65
REMARK Flexibility Score: inf
ROOT
ATOM      1  C   UNL     1     -46.330  38.256  28.447  1.00  0.00     0.169 C 
ATOM      2  O   UNL     1     -45.726  36.969  28.189  1.00  0.00    -0.345 OA
ATOM      3  C   UNL     1     -46.747  36.074  27.700  1.00  0.00     0.123 C 
ATOM      4  C   UNL     1     -48.092  36.792  27.840  1.00  0.00     0.119 C 
ATOM      5  C   UNL     1     -47.735  38.261  27.861  1.00  0.00     0.173 C 
ATOM      6  F   UNL     1     -47.756  38.743  26.590  1.00  0.00    -0.239 F 
ATOM      7  H   UNL     1     -46.363  38.355  29.538  1.00  0.00     0.088 H 
ATOM      8  H   UNL     1     -46.712  35.185  28.339  1.00  0.00     0.067 H 
ATOM      9  H   UNL     1     -48.799  36.537  27.044  1.00  0.00     0.066 H 
ATOM     10  H   UNL     1     -48.419  38.875  28.455  1.00  0.00     0.074 H 
ENDROOT
BRANCH   1  11
ATOM     11  N   UNL     1     -45.481  39.319  27.933  1.00  0.00    -0.302 N 
ATOM     12  C   UNL     1     -44.702  41.038  26.758  1.00  0.00     0.068 A 
ATOM     13  C   UNL     1     -45.717  40.108  26.836  1.00  0.00     0.022 A 
ATOM     14  C   UNL     1     -43.785  40.785  27.816  1.00  0.00     0.074 A 
ATOM     15  H   UNL     1     -46.594  39.967  26.217  1.00  0.00     0.083 H 
ATOM     16  C   UNL     1     -44.313  39.716  28.535  1.00  0.00     0.148 A 
ATOM     17  C   UNL     1     -42.575  41.315  28.290  1.00  0.00     0.137 A 
ATOM     18  N   UNL     1     -43.791  39.157  29.641  1.00  0.00    -0.218 NA
ATOM     19  N   UNL     1     -42.023  40.786  29.402  1.00  0.00    -0.219 NA
ATOM     20  C   UNL     1     -42.645  39.755  30.001  1.00  0.00     0.120 A 
ATOM     21  H   UNL     1     -42.159  39.360  30.889  1.00  0.00     0.106 H 
BRANCH  12  22
ATOM     22  C   UNL     1     -44.661  42.158  25.673  1.00  0.00     0.228 A 
ATOM     23  C   UNL     1     -43.953  43.464  24.137  1.00  0.00     0.076 A 
ATOM     24  C   UNL     1     -45.280  43.749  24.342  1.00  0.00     0.114 A 
ATOM     25  N   UNL     1     -43.572  42.451  24.983  1.00  0.00    -0.215 NA
ATOM     26  O   UNL     1     -45.748  42.919  25.313  1.00  0.00    -0.444 OA
ATOM     27  H   UNL     1     -45.987  44.449  23.922  1.00  0.00     0.106 H 
BRANCH  23  28
ATOM     28  C   UNL     1     -42.990  44.071  23.198  1.00  0.00    -0.019 C 
ATOM     29  H   UNL     1     -42.043  44.277  23.706  1.00  0.00     0.030 H 
ATOM     30  H   UNL     1     -43.372  45.013  22.791  1.00  0.00     0.030 H 
ATOM     31  H   UNL     1     -42.793  43.393  22.362  1.00  0.00     0.030 H 
ENDBRANCH  23  28
ENDBRANCH  12  22
BRANCH  17  32
ATOM     32  N   UNL     1     -41.889  42.359  27.699  1.00  0.00    -0.383 N 
ATOM     33  H   UNL     1     -42.283  43.259  27.938  1.00  0.00     0.158 HD
ATOM     34  H   UNL     1     -41.589  42.216  26.742  1.00  0.00     0.158 HD
ENDBRANCH  17  32
ENDBRANCH   1  11
BRANCH   3  35
ATOM     35  C   UNL     1     -46.389  35.645  26.268  1.00  0.00     0.117 C 
ATOM     36  H   UNL     1     -47.315  35.601  25.681  1.00  0.00     0.073 H 
ATOM     37  H   UNL     1     -45.704  36.380  25.832  1.00  0.00     0.073 H 
BRANCH  35  38
ATOM     38  O   UNL     1     -45.753  34.369  26.283  1.00  0.00    -0.491 OA
BRANCH  38  39
ATOM     39  C   UNL     1     -46.508  33.302  25.883  1.00  0.00     0.121 A 
ATOM     40  C   UNL     1     -47.097  32.581  26.918  1.00  0.00    -0.019 A 
ATOM     41  C   UNL     1     -46.699  32.894  24.562  1.00  0.00     0.007 A 
ATOM     42  C   UNL     1     -47.898  31.478  26.632  1.00  0.00    -0.049 A 
ATOM     43  H   UNL     1     -46.948  32.892  27.950  1.00  0.00     0.066 H 
ATOM     44  C   UNL     1     -47.488  31.794  24.249  1.00  0.00     0.076 A 
ATOM     45  H   UNL     1     -46.230  33.421  23.738  1.00  0.00     0.069 H 
ATOM     46  C   UNL     1     -48.097  31.083  25.301  1.00  0.00     0.001 A 
ATOM     47  H   UNL     1     -48.368  30.939  27.452  1.00  0.00     0.063 H 
ATOM     48  N   UNL     1     -47.642  31.445  22.959  1.00  0.00    -0.231 NA
ATOM     49  C   UNL     1     -48.894  29.986  24.970  1.00  0.00    -0.049 A 
ATOM     50  C   UNL     1     -48.410  30.375  22.648  1.00  0.00     0.129 A 
ATOM     51  C   UNL     1     -49.053  29.632  23.633  1.00  0.00    -0.019 A 
ATOM     52  H   UNL     1     -49.393  29.405  25.741  1.00  0.00     0.063 H 
ATOM     53  H   UNL     1     -49.681  28.790  23.369  1.00  0.00     0.066 H 
BRANCH  50  54
ATOM     54  N   UNL     1     -48.572  30.032  21.293  1.00  0.00    -0.356 N 
ATOM     55  C   UNL     1     -49.167  30.846  20.273  1.00  0.00     0.021 C 
ATOM     56  C   UNL     1     -49.243  28.849  20.834  1.00  0.00     0.021 C 
ATOM     57  C   UNL     1     -49.361  29.551  19.477  1.00  0.00    -0.018 C 
ATOM     58  H   UNL     1     -48.479  31.573  19.835  1.00  0.00     0.049 H 
ATOM     59  H   UNL     1     -50.093  31.332  20.600  1.00  0.00     0.049 H 
ATOM     60  H   UNL     1     -50.196  28.670  21.344  1.00  0.00     0.049 H 
ATOM     61  H   UNL     1     -48.616  27.955  20.856  1.00  0.00     0.049 H 
ATOM     62  H   UNL     1     -48.548  29.323  18.778  1.00  0.00     0.030 H 
ATOM     63  H   UNL     1     -50.321  29.445  18.967  1.00  0.00     0.030 H 
ENDBRANCH  50  54
ENDBRANCH  38  39
ENDBRANCH  35  38
ENDBRANCH   3  35
BRANCH   4  64
ATOM     64  O   UNL     1     -48.706  36.454  29.093  1.00  0.00    -0.387 OA
ATOM     65  H   UNL     1     -49.656  36.310  28.931  1.00  0.00     0.211 HD
ENDBRANCH   4  64
TORSDOF 9
ENDMDL
MODEL 6
REMARK VINA RESULT:      -8.9      4.412      8.211
REMARK SMILES Cc1coc(-c2cn([C@@H]3O[C@H](COc4ccc5ccc(N6CCC6)nc5c4)[C@@H](O)[C@@H]3F)c3ncnc(N)c23)n1
REMARK SMILES IDX 9 1 10 2 11 3 28 4 30 5 31 6 8 11 6 12 7 13 38 14 32 16
REMARK SMILES IDX 36 17 33 18 35 19 34 20 5 22 2 23 3 24 39 25 4 26 1 28 37 32
REMARK SMILES IDX 12 35 13 38 14 39 15 40 27 41 16 42 26 44 17 46 25 48 18 49
REMARK SMILES IDX 20 50 19 51 21 54 22 55 24 56 23 57 29 64
REMARK H PARENT 9 7 11 8 28 9 30 10 7 15 34 21 3 27 1 29 1 30 1 31 37 33 37 34
REMARK H PARENT 12 36 12 37 15 43 27 45 16 47 18 52 19 53 22 58 22 59 24 60
REMARK H PARENT 24 61 23 62 23 63 29 65
REMARK Flexibility Score: inf
ROOT
ATOM      1  C   UNL     1     -45.186  37.492  28.421  1.00  0.00     0.169 C 
ATOM      2  O   UNL     1     -46.082  36.936  27.433  1.00  0.00    -0.345 OA
ATOM      3  C   UNL     1     -47.187  36.311  28.117  1.00  0.00     0.123 C 
ATOM      4  C   UNL     1     -46.864  36.318  29.614  1.00  0.00     0.119 C 
ATOM      5  C   UNL     1     -45.871  37.446  29.779  1.00  0.00     0.173 C 
ATOM      6  F   UNL     1     -46.544  38.595  30.052  1.00  0.00    -0.239 F 
ATOM      7  H   UNL     1     -44.297  36.851  28.411  1.00  0.00     0.088 H 
ATOM      8  H   UNL     1     -47.248  35.286  27.737  1.00  0.00     0.067 H 
ATOM      9  H   UNL     1     -47.751  36.435  30.244  1.00  0.00     0.066 H 
ATOM     10  H   UNL     1     -45.152  37.289  30.590  1.00  0.00     0.074 H 
ENDROOT
BRANCH   1  11
ATOM     11  N   UNL     1     -44.771  38.829  28.024  1.00  0.00    -0.302 N 
ATOM     12  C   UNL     1     -44.652  40.807  27.019  1.00  0.00     0.068 A 
ATOM     13  C   UNL     1     -45.266  39.573  26.985  1.00  0.00     0.022 A 
ATOM     14  C   UNL     1     -43.712  40.807  28.087  1.00  0.00     0.074 A 
ATOM     15  H   UNL     1     -46.030  39.184  26.324  1.00  0.00     0.083 H 
ATOM     16  C   UNL     1     -43.827  39.562  28.700  1.00  0.00     0.148 A 
ATOM     17  C   UNL     1     -42.776  41.690  28.648  1.00  0.00     0.137 A 
ATOM     18  N   UNL     1     -43.147  39.132  29.777  1.00  0.00    -0.218 NA
ATOM     19  N   UNL     1     -42.079  41.298  29.734  1.00  0.00    -0.219 NA
ATOM     20  C   UNL     1     -42.295  40.066  30.226  1.00  0.00     0.120 A 
ATOM     21  H   UNL     1     -41.705  39.794  31.097  1.00  0.00     0.106 H 
BRANCH  12  22
ATOM     22  C   UNL     1     -45.007  41.959  26.028  1.00  0.00     0.228 A 
ATOM     23  C   UNL     1     -44.854  43.393  24.451  1.00  0.00     0.076 A 
ATOM     24  C   UNL     1     -46.113  43.502  24.988  1.00  0.00     0.114 A 
ATOM     25  N   UNL     1     -44.164  42.409  25.116  1.00  0.00    -0.215 NA
ATOM     26  O   UNL     1     -46.230  42.589  25.989  1.00  0.00    -0.444 OA
ATOM     27  H   UNL     1     -46.977  44.121  24.795  1.00  0.00     0.106 H 
BRANCH  23  28
ATOM     28  C   UNL     1     -44.228  44.147  23.347  1.00  0.00    -0.019 C 
ATOM     29  H   UNL     1     -43.212  44.445  23.620  1.00  0.00     0.030 H 
ATOM     30  H   UNL     1     -44.798  45.050  23.110  1.00  0.00     0.030 H 
ATOM     31  H   UNL     1     -44.177  43.529  22.446  1.00  0.00     0.030 H 
ENDBRANCH  23  28
ENDBRANCH  12  22
BRANCH  17  32
ATOM     32  N   UNL     1     -42.506  42.958  28.166  1.00  0.00    -0.383 N 
ATOM     33  H   UNL     1     -42.518  42.994  27.156  1.00  0.00     0.158 HD
ATOM     34  H   UNL     1     -41.782  43.478  28.648  1.00  0.00     0.158 HD
ENDBRANCH  17  32
ENDBRANCH   1  11
BRANCH   3  35
ATOM     35  C   UNL     1     -48.486  37.038  27.734  1.00  0.00     0.117 C 
ATOM     36  H   UNL     1     -48.888  36.567  26.828  1.00  0.00     0.073 H 
ATOM     37  H   UNL     1     -49.206  36.946  28.554  1.00  0.00     0.073 H 
BRANCH  35  38
ATOM     38  O   UNL     1     -48.224  38.419  27.498  1.00  0.00    -0.491 OA
BRANCH  38  39
ATOM     39  C   UNL     1     -49.019  39.315  28.157  1.00  0.00     0.121 A 
ATOM     40  C   UNL     1     -50.357  38.946  28.264  1.00  0.00    -0.019 A 
ATOM     41  C   UNL     1     -48.597  40.536  28.687  1.00  0.00     0.007 A 
ATOM     42  C   UNL     1     -51.260  39.775  28.924  1.00  0.00    -0.049 A 
ATOM     43  H   UNL     1     -50.692  37.997  27.849  1.00  0.00     0.066 H 
ATOM     44  C   UNL     1     -49.478  41.385  29.345  1.00  0.00     0.076 A 
ATOM     45  H   UNL     1     -47.566  40.863  28.595  1.00  0.00     0.069 H 
ATOM     46  C   UNL     1     -50.825  40.993  29.466  1.00  0.00     0.001 A 
ATOM     47  H   UNL     1     -52.296  39.460  29.017  1.00  0.00     0.063 H 
ATOM     48  N   UNL     1     -49.019  42.548  29.840  1.00  0.00    -0.231 NA
ATOM     49  C   UNL     1     -51.695  41.853  30.138  1.00  0.00    -0.049 A 
ATOM     50  C   UNL     1     -49.872  43.379  30.483  1.00  0.00     0.129 A 
ATOM     51  C   UNL     1     -51.214  43.053  30.652  1.00  0.00    -0.019 A 
ATOM     52  H   UNL     1     -52.743  41.597  30.267  1.00  0.00     0.063 H 
ATOM     53  H   UNL     1     -51.881  43.718  31.186  1.00  0.00     0.066 H 
BRANCH  50  54
ATOM     54  N   UNL     1     -49.372  44.586  31.007  1.00  0.00    -0.356 N 
ATOM     55  C   UNL     1     -48.823  45.678  30.257  1.00  0.00     0.021 C 
ATOM     56  C   UNL     1     -48.344  44.668  32.006  1.00  0.00     0.021 C 
ATOM     57  C   UNL     1     -48.155  46.122  31.563  1.00  0.00    -0.018 C 
ATOM     58  H   UNL     1     -49.577  46.359  29.857  1.00  0.00     0.049 H 
ATOM     59  H   UNL     1     -48.133  45.354  29.471  1.00  0.00     0.049 H 
ATOM     60  H   UNL     1     -47.492  44.009  31.802  1.00  0.00     0.049 H 
ATOM     61  H   UNL     1     -48.713  44.523  33.024  1.00  0.00     0.049 H 
ATOM     62  H   UNL     1     -48.733  46.851  32.143  1.00  0.00     0.030 H 
ATOM     63  H   UNL     1     -47.120  46.463  31.477  1.00  0.00     0.030 H 
ENDBRANCH  50  54
ENDBRANCH  38  39
ENDBRANCH  35  38
ENDBRANCH   3  35
BRANCH   4  64
ATOM     64  O   UNL     1     -46.224  35.088  29.988  1.00  0.00    -0.387 OA
ATOM     65  H   UNL     1     -45.274  35.270  30.103  1.00  0.00     0.211 HD
ENDBRANCH   4  64
TORSDOF 9
ENDMDL
MODEL 7
REMARK VINA RESULT:      -8.8      3.165      6.100
REMARK SMILES Cc1coc(-c2cn([C@@H]3O[C@H](COc4ccc5ccc(N6CCC6)nc5c4)[C@@H](O)[C@@H]3F)c3ncnc(N)c23)n1
REMARK SMILES IDX 9 1 10 2 11 3 28 4 30 5 31 6 8 11 6 12 7 13 38 14 32 16
REMARK SMILES IDX 36 17 33 18 35 19 34 20 5 22 2 23 3 24 39 25 4 26 1 28 37 32
REMARK SMILES IDX 12 35 13 38 14 39 15 40 27 41 16 42 26 44 17 46 25 48 18 49
REMARK SMILES IDX 20 50 19 51 21 54 22 55 24 56 23 57 29 64
REMARK H PARENT 9 7 11 8 28 9 30 10 7 15 34 21 3 27 1 29 1 30 1 31 37 33 37 34
REMARK H PARENT 12 36 12 37 15 43 27 45 16 47 18 52 19 53 22 58 22 59 24 60
REMARK H PARENT 24 61 23 62 23 63 29 65
REMARK Flexibility Score: inf
ROOT
ATOM      1  C   UNL     1     -43.658  42.620  25.696  1.00  0.00     0.169 C 
ATOM      2  O   UNL     1     -43.848  41.202  25.899  1.00  0.00    -0.345 OA
ATOM      3  C   UNL     1     -43.070  40.796  27.045  1.00  0.00     0.123 C 
ATOM      4  C   UNL     1     -42.206  41.989  27.460  1.00  0.00     0.119 C 
ATOM      5  C   UNL     1     -42.935  43.193  26.907  1.00  0.00     0.173 C 
ATOM      6  F   UNL     1     -43.802  43.659  27.846  1.00  0.00    -0.239 F 
ATOM      7  H   UNL     1     -43.041  42.711  24.795  1.00  0.00     0.088 H 
ATOM      8  H   UNL     1     -42.445  39.959  26.714  1.00  0.00     0.067 H 
ATOM      9  H   UNL     1     -42.046  42.048  28.541  1.00  0.00     0.066 H 
ATOM     10  H   UNL     1     -42.277  44.022  26.631  1.00  0.00     0.074 H 
ENDROOT
BRANCH   1  11
ATOM     11  N   UNL     1     -44.935  43.262  25.424  1.00  0.00    -0.302 N 
ATOM     12  C   UNL     1     -47.090  43.804  25.450  1.00  0.00     0.068 A 
ATOM     13  C   UNL     1     -46.169  42.870  25.873  1.00  0.00     0.022 A 
ATOM     14  C   UNL     1     -46.406  44.781  24.673  1.00  0.00     0.074 A 
ATOM     15  H   UNL     1     -46.295  41.980  26.478  1.00  0.00     0.083 H 
ATOM     16  C   UNL     1     -45.062  44.417  24.693  1.00  0.00     0.148 A 
ATOM     17  C   UNL     1     -46.723  45.945  23.956  1.00  0.00     0.137 A 
ATOM     18  N   UNL     1     -44.044  45.075  24.112  1.00  0.00    -0.218 NA
ATOM     19  N   UNL     1     -45.727  46.638  23.365  1.00  0.00    -0.219 NA
ATOM     20  C   UNL     1     -44.470  46.173  23.469  1.00  0.00     0.120 A 
ATOM     21  H   UNL     1     -43.705  46.761  22.971  1.00  0.00     0.106 H 
BRANCH  12  22
ATOM     22  C   UNL     1     -48.603  43.735  25.825  1.00  0.00     0.228 A 
ATOM     23  C   UNL     1     -50.732  43.677  25.652  1.00  0.00     0.076 A 
ATOM     24  C   UNL     1     -50.422  43.567  26.986  1.00  0.00     0.114 A 
ATOM     25  N   UNL     1     -49.570  43.780  24.926  1.00  0.00    -0.215 NA
ATOM     26  O   UNL     1     -49.068  43.594  27.112  1.00  0.00    -0.444 OA
ATOM     27  H   UNL     1     -50.991  43.468  27.898  1.00  0.00     0.106 H 
BRANCH  23  28
ATOM     28  C   UNL     1     -52.048  43.697  24.986  1.00  0.00    -0.019 C 
ATOM     29  H   UNL     1     -52.825  44.007  25.691  1.00  0.00     0.030 H 
ATOM     30  H   UNL     1     -52.312  42.708  24.598  1.00  0.00     0.030 H 
ATOM     31  H   UNL     1     -52.040  44.401  24.149  1.00  0.00     0.030 H 
ENDBRANCH  23  28
ENDBRANCH  12  22
BRANCH  17  32
ATOM     32  N   UNL     1     -48.001  46.452  23.805  1.00  0.00    -0.383 N 
ATOM     33  H   UNL     1     -47.996  47.429  23.542  1.00  0.00     0.158 HD
ATOM     34  H   UNL     1     -48.688  46.151  24.485  1.00  0.00     0.158 HD
ENDBRANCH  17  32
ENDBRANCH   1  11
BRANCH   3  35
ATOM     35  C   UNL     1     -44.021  40.276  28.134  1.00  0.00     0.117 C 
ATOM     36  H   UNL     1     -43.878  39.193  28.227  1.00  0.00     0.073 H 
ATOM     37  H   UNL     1     -43.784  40.768  29.084  1.00  0.00     0.073 H 
BRANCH  35  38
ATOM     38  O   UNL     1     -45.372  40.568  27.786  1.00  0.00    -0.491 OA
BRANCH  38  39
ATOM     39  C   UNL     1     -46.228  39.505  27.702  1.00  0.00     0.121 A 
ATOM     40  C   UNL     1     -47.520  39.756  28.156  1.00  0.00    -0.019 A 
ATOM     41  C   UNL     1     -45.896  38.233  27.232  1.00  0.00     0.007 A 
ATOM     42  C   UNL     1     -48.483  38.751  28.109  1.00  0.00    -0.049 A 
ATOM     43  H   UNL     1     -47.783  40.744  28.527  1.00  0.00     0.066 H 
ATOM     44  C   UNL     1     -46.836  37.211  27.181  1.00  0.00     0.076 A 
ATOM     45  H   UNL     1     -44.891  38.002  26.898  1.00  0.00     0.069 H 
ATOM     46  C   UNL     1     -48.146  37.479  27.622  1.00  0.00     0.001 A 
ATOM     47  H   UNL     1     -49.493  38.970  28.447  1.00  0.00     0.063 H 
ATOM     48  N   UNL     1     -46.465  36.004  26.716  1.00  0.00    -0.231 NA
ATOM     49  C   UNL     1     -49.080  36.444  27.556  1.00  0.00    -0.049 A 
ATOM     50  C   UNL     1     -47.376  35.005  26.663  1.00  0.00     0.129 A 
ATOM     51  C   UNL     1     -48.692  35.200  27.070  1.00  0.00    -0.019 A 
ATOM     52  H   UNL     1     -50.107  36.598  27.876  1.00  0.00     0.063 H 
ATOM     53  H   UNL     1     -49.416  34.397  27.003  1.00  0.00     0.066 H 
BRANCH  50  54
ATOM     54  N   UNL     1     -46.975  33.753  26.161  1.00  0.00    -0.356 N 
ATOM     55  C   UNL     1     -46.337  33.504  24.900  1.00  0.00     0.021 C 
ATOM     56  C   UNL     1     -47.848  32.623  26.017  1.00  0.00     0.021 C 
ATOM     57  C   UNL     1     -46.805  32.053  25.051  1.00  0.00    -0.018 C 
ATOM     58  H   UNL     1     -45.256  33.657  24.918  1.00  0.00     0.049 H 
ATOM     59  H   UNL     1     -46.796  34.056  24.073  1.00  0.00     0.049 H 
ATOM     60  H   UNL     1     -48.810  32.878  25.559  1.00  0.00     0.049 H 
ATOM     61  H   UNL     1     -47.995  32.064  26.945  1.00  0.00     0.049 H 
ATOM     62  H   UNL     1     -46.071  31.387  25.518  1.00  0.00     0.030 H 
ATOM     63  H   UNL     1     -47.200  31.584  24.146  1.00  0.00     0.030 H 
ENDBRANCH  50  54
ENDBRANCH  38  39
ENDBRANCH  35  38
ENDBRANCH   3  35
BRANCH   4  64
ATOM     64  O   UNL     1     -40.917  41.910  26.832  1.00  0.00    -0.387 OA
ATOM     65  H   UNL     1     -40.506  42.792  26.882  1.00  0.00     0.211 HD
ENDBRANCH   4  64
TORSDOF 9
ENDMDL
