MODEL 1
REMARK VINA RESULT:     -10.0      0.000      0.000
REMARK SMILES COc1cnc(C#N)c(-c2cn(Cc3ccc4cc(CN5CCC6(CCC6)C5)[nH]c4c3)nn2)c1
REMARK SMILES IDX 10 1 11 2 12 3 32 4 33 5 9 7 3 8 4 9 34 10 5 11 6 14 2 15
REMARK SMILES IDX 1 16 7 20 8 21 13 22 14 25 15 26 31 27 16 28 30 30 17 32
REMARK SMILES IDX 29 34 18 35 19 36 20 39 21 42 22 43 28 44 23 45 24 48 25 53
REMARK SMILES IDX 27 54 26 55
REMARK H PARENT 11 6 4 12 34 13 1 17 1 18 1 19 13 23 13 24 15 29 31 31 16 33
REMARK H PARENT 29 37 18 38 20 40 20 41 22 46 22 47 28 49 28 50 23 51 23 52
REMARK H PARENT 25 56 25 57 27 58 27 59 26 60 26 61
REMARK Flexibility Score: inf
ROOT
ATOM      1  C   UNL     1     -47.537  32.535  25.440  1.00  0.00     0.116 A 
ATOM      2  C   UNL     1     -48.501  33.332  26.014  1.00  0.00     0.054 A 
ATOM      3  N   UNL     1     -47.848  34.504  26.274  1.00  0.00    -0.247 N 
ATOM      4  N   UNL     1     -46.563  34.445  25.879  1.00  0.00    -0.066 NA
ATOM      5  N   UNL     1     -46.365  33.244  25.353  1.00  0.00    -0.130 NA
ATOM      6  H   UNL     1     -49.549  33.199  26.243  1.00  0.00     0.086 H 
ENDROOT
BRANCH   1   7
ATOM      7  C   UNL     1     -47.681  31.185  24.934  1.00  0.00     0.044 A 
ATOM      8  C   UNL     1     -48.616  28.962  25.244  1.00  0.00     0.137 A 
ATOM      9  C   UNL     1     -48.008  28.607  24.048  1.00  0.00     0.070 A 
ATOM     10  C   UNL     1     -48.445  30.272  25.684  1.00  0.00    -0.006 A 
ATOM     11  N   UNL     1     -47.272  29.450  23.284  1.00  0.00    -0.241 NA
ATOM     12  H   UNL     1     -48.104  27.598  23.657  1.00  0.00     0.088 H 
ATOM     13  H   UNL     1     -48.893  30.612  26.614  1.00  0.00     0.067 H 
ATOM     14  C   UNL     1     -47.128  30.726  23.736  1.00  0.00     0.150 A 
BRANCH   8  15
ATOM     15  O   UNL     1     -49.323  27.979  25.872  1.00  0.00    -0.495 OA
BRANCH  15  16
ATOM     16  C   UNL     1     -48.588  27.085  26.699  1.00  0.00     0.078 C 
ATOM     17  H   UNL     1     -47.868  26.558  26.065  1.00  0.00     0.067 H 
ATOM     18  H   UNL     1     -48.024  27.628  27.464  1.00  0.00     0.067 H 
ATOM     19  H   UNL     1     -49.245  26.334  27.151  1.00  0.00     0.067 H 
ENDBRANCH  15  16
ENDBRANCH   8  15
BRANCH  14  20
ATOM     20  C   UNL     1     -46.375  31.571  22.847  1.00  0.00     0.120 C 
ATOM     21  N   UNL     1     -45.788  32.243  22.101  1.00  0.00    -0.191 NA
ENDBRANCH  14  20
ENDBRANCH   1   7
BRANCH   3  22
ATOM     22  C   UNL     1     -48.367  35.689  26.932  1.00  0.00     0.068 C 
ATOM     23  H   UNL     1     -48.792  36.330  26.150  1.00  0.00     0.057 H 
ATOM     24  H   UNL     1     -49.187  35.394  27.595  1.00  0.00     0.057 H 
BRANCH  22  25
ATOM     25  C   UNL     1     -47.291  36.406  27.713  1.00  0.00    -0.024 A 
ATOM     26  C   UNL     1     -46.868  35.901  28.951  1.00  0.00    -0.056 A 
ATOM     27  C   UNL     1     -46.705  37.575  27.194  1.00  0.00    -0.033 A 
ATOM     28  C   UNL     1     -45.865  36.541  29.690  1.00  0.00    -0.052 A 
ATOM     29  H   UNL     1     -47.314  34.993  29.354  1.00  0.00     0.063 H 
ATOM     30  C   UNL     1     -45.702  38.197  27.947  1.00  0.00     0.046 A 
ATOM     31  H   UNL     1     -47.012  37.987  26.237  1.00  0.00     0.065 H 
ATOM     32  C   UNL     1     -45.272  37.710  29.180  1.00  0.00    -0.000 A 
ATOM     33  H   UNL     1     -45.549  36.135  30.647  1.00  0.00     0.063 H 
ATOM     34  N   UNL     1     -44.969  39.331  27.686  1.00  0.00    -0.357 N 
ATOM     35  C   UNL     1     -44.259  38.591  29.651  1.00  0.00    -0.032 A 
ATOM     36  C   UNL     1     -44.091  39.588  28.712  1.00  0.00     0.030 A 
ATOM     37  H   UNL     1     -45.073  39.929  26.877  1.00  0.00     0.166 HD
ATOM     38  H   UNL     1     -43.712  38.501  30.581  1.00  0.00     0.065 H 
BRANCH  36  39
ATOM     39  C   UNL     1     -43.170  40.760  28.670  1.00  0.00     0.039 C 
ATOM     40  H   UNL     1     -43.043  41.182  29.676  1.00  0.00     0.050 H 
ATOM     41  H   UNL     1     -42.187  40.389  28.351  1.00  0.00     0.050 H 
BRANCH  39  42
ATOM     42  N   UNL     1     -43.639  41.772  27.719  1.00  0.00    -0.297 NA
ATOM     43  C   UNL     1     -43.236  43.135  28.094  1.00  0.00    -0.001 C 
ATOM     44  C   UNL     1     -43.063  41.568  26.380  1.00  0.00     0.004 C 
ATOM     45  C   UNL     1     -43.538  43.917  26.823  1.00  0.00    -0.033 C 
ATOM     46  H   UNL     1     -43.806  43.528  28.941  1.00  0.00     0.043 H 
ATOM     47  H   UNL     1     -42.166  43.191  28.327  1.00  0.00     0.043 H 
ATOM     48  C   UNL     1     -43.110  42.948  25.718  1.00  0.00    -0.016 C 
ATOM     49  H   UNL     1     -42.025  41.218  26.445  1.00  0.00     0.044 H 
ATOM     50  H   UNL     1     -43.644  40.823  25.827  1.00  0.00     0.044 H 
ATOM     51  H   UNL     1     -44.613  44.125  26.761  1.00  0.00     0.029 H 
ATOM     52  H   UNL     1     -43.002  44.871  26.795  1.00  0.00     0.029 H 
ATOM     53  C   UNL     1     -41.836  43.350  24.911  1.00  0.00    -0.046 C 
ATOM     54  C   UNL     1     -43.879  43.072  24.368  1.00  0.00    -0.046 C 
ATOM     55  C   UNL     1     -42.771  44.030  23.893  1.00  0.00    -0.052 C 
ATOM     56  H   UNL     1     -41.283  42.502  24.488  1.00  0.00     0.027 H 
ATOM     57  H   UNL     1     -41.125  44.010  25.416  1.00  0.00     0.027 H 
ATOM     58  H   UNL     1     -43.923  42.142  23.787  1.00  0.00     0.027 H 
ATOM     59  H   UNL     1     -44.884  43.500  24.414  1.00  0.00     0.027 H 
ATOM     60  H   UNL     1     -42.478  43.937  22.844  1.00  0.00     0.027 H 
ATOM     61  H   UNL     1     -42.973  45.085  24.113  1.00  0.00     0.027 H 
ENDBRANCH  39  42
ENDBRANCH  36  39
ENDBRANCH  22  25
ENDBRANCH   3  22
TORSDOF 8
ENDMDL
MODEL 2
REMARK VINA RESULT:      -9.7      3.163     11.699
REMARK SMILES COc1cnc(C#N)c(-c2cn(Cc3ccc4cc(CN5CCC6(CCC6)C5)[nH]c4c3)nn2)c1
REMARK SMILES IDX 10 1 11 2 12 3 32 4 33 5 9 7 3 8 4 9 34 10 5 11 6 14 2 15
REMARK SMILES IDX 1 16 7 20 8 21 13 22 14 25 15 26 31 27 16 28 30 30 17 32
REMARK SMILES IDX 29 34 18 35 19 36 20 39 21 42 22 43 28 44 23 45 24 48 25 53
REMARK SMILES IDX 27 54 26 55
REMARK H PARENT 11 6 4 12 34 13 1 17 1 18 1 19 13 23 13 24 15 29 31 31 16 33
REMARK H PARENT 29 37 18 38 20 40 20 41 22 46 22 47 28 49 28 50 23 51 23 52
REMARK H PARENT 25 56 25 57 27 58 27 59 26 60 26 61
REMARK Flexibility Score: inf
ROOT
ATOM      1  C   UNL     1     -45.765  38.542  27.884  1.00  0.00     0.116 A 
ATOM      2  C   UNL     1     -46.824  37.987  27.203  1.00  0.00     0.054 A 
ATOM      3  N   UNL     1     -47.268  36.996  28.034  1.00  0.00    -0.247 N 
ATOM      4  N   UNL     1     -46.539  36.945  29.164  1.00  0.00    -0.066 NA
ATOM      5  N   UNL     1     -45.622  37.899  29.088  1.00  0.00    -0.130 NA
ATOM      6  H   UNL     1     -47.301  38.193  26.255  1.00  0.00     0.086 H 
ENDROOT
BRANCH   1   7
ATOM      7  C   UNL     1     -44.935  39.660  27.484  1.00  0.00     0.044 A 
ATOM      8  C   UNL     1     -44.474  41.395  25.844  1.00  0.00     0.137 A 
ATOM      9  C   UNL     1     -43.417  41.789  26.651  1.00  0.00     0.070 A 
ATOM     10  C   UNL     1     -45.239  40.314  26.276  1.00  0.00    -0.006 A 
ATOM     11  N   UNL     1     -43.090  41.201  27.826  1.00  0.00    -0.241 NA
ATOM     12  H   UNL     1     -42.782  42.625  26.363  1.00  0.00     0.088 H 
ATOM     13  H   UNL     1     -46.079  39.954  25.688  1.00  0.00     0.067 H 
ATOM     14  C   UNL     1     -43.859  40.152  28.226  1.00  0.00     0.150 A 
BRANCH   8  15
ATOM     15  O   UNL     1     -44.654  42.112  24.698  1.00  0.00    -0.495 OA
BRANCH  15  16
ATOM     16  C   UNL     1     -45.071  43.465  24.843  1.00  0.00     0.078 C 
ATOM     17  H   UNL     1     -44.430  43.933  25.595  1.00  0.00     0.067 H 
ATOM     18  H   UNL     1     -44.945  44.019  23.906  1.00  0.00     0.067 H 
ATOM     19  H   UNL     1     -46.104  43.523  25.201  1.00  0.00     0.067 H 
ENDBRANCH  15  16
ENDBRANCH   8  15
BRANCH  14  20
ATOM     20  C   UNL     1     -43.479  39.613  29.505  1.00  0.00     0.120 C 
ATOM     21  N   UNL     1     -43.149  39.153  30.522  1.00  0.00    -0.191 NA
ENDBRANCH  14  20
ENDBRANCH   1   7
BRANCH   3  22
ATOM     22  C   UNL     1     -48.337  36.043  27.797  1.00  0.00     0.068 C 
ATOM     23  H   UNL     1     -48.629  35.640  28.774  1.00  0.00     0.057 H 
ATOM     24  H   UNL     1     -49.202  36.577  27.390  1.00  0.00     0.057 H 
BRANCH  22  25
ATOM     25  C   UNL     1     -47.904  34.947  26.852  1.00  0.00    -0.024 A 
ATOM     26  C   UNL     1     -46.576  34.893  26.401  1.00  0.00    -0.056 A 
ATOM     27  C   UNL     1     -48.828  33.974  26.433  1.00  0.00    -0.033 A 
ATOM     28  C   UNL     1     -46.147  33.882  25.533  1.00  0.00    -0.052 A 
ATOM     29  H   UNL     1     -45.855  35.641  26.728  1.00  0.00     0.063 H 
ATOM     30  C   UNL     1     -48.377  32.969  25.567  1.00  0.00     0.046 A 
ATOM     31  H   UNL     1     -49.861  33.989  26.768  1.00  0.00     0.065 H 
ATOM     32  C   UNL     1     -47.063  32.903  25.108  1.00  0.00    -0.000 A 
ATOM     33  H   UNL     1     -45.115  33.855  25.194  1.00  0.00     0.063 H 
ATOM     34  N   UNL     1     -49.051  31.908  25.010  1.00  0.00    -0.357 N 
ATOM     35  C   UNL     1     -46.972  31.769  24.253  1.00  0.00    -0.032 A 
ATOM     36  C   UNL     1     -48.215  31.171  24.205  1.00  0.00     0.030 A 
ATOM     37  H   UNL     1     -50.034  31.703  25.130  1.00  0.00     0.166 HD
ATOM     38  H   UNL     1     -46.088  31.429  23.730  1.00  0.00     0.065 H 
BRANCH  36  39
ATOM     39  C   UNL     1     -48.700  29.958  23.487  1.00  0.00     0.039 C 
ATOM     40  H   UNL     1     -49.588  30.197  22.888  1.00  0.00     0.050 H 
ATOM     41  H   UNL     1     -47.910  29.659  22.785  1.00  0.00     0.050 H 
BRANCH  39  42
ATOM     42  N   UNL     1     -48.962  28.857  24.419  1.00  0.00    -0.297 NA
ATOM     43  C   UNL     1     -49.490  27.659  23.749  1.00  0.00    -0.001 C 
ATOM     44  C   UNL     1     -47.730  28.401  25.082  1.00  0.00     0.004 C 
ATOM     45  C   UNL     1     -49.356  26.602  24.838  1.00  0.00    -0.033 C 
ATOM     46  H   UNL     1     -50.533  27.771  23.438  1.00  0.00     0.043 H 
ATOM     47  H   UNL     1     -48.885  27.382  22.877  1.00  0.00     0.043 H 
ATOM     48  C   UNL     1     -48.016  26.953  25.488  1.00  0.00    -0.016 C 
ATOM     49  H   UNL     1     -46.875  28.437  24.396  1.00  0.00     0.044 H 
ATOM     50  H   UNL     1     -47.507  29.037  25.945  1.00  0.00     0.044 H 
ATOM     51  H   UNL     1     -50.176  26.705  25.559  1.00  0.00     0.029 H 
ATOM     52  H   UNL     1     -49.386  25.588  24.425  1.00  0.00     0.029 H 
ATOM     53  C   UNL     1     -46.850  25.944  25.244  1.00  0.00    -0.046 C 
ATOM     54  C   UNL     1     -47.876  26.589  26.998  1.00  0.00    -0.046 C 
ATOM     55  C   UNL     1     -47.259  25.249  26.557  1.00  0.00    -0.052 C 
ATOM     56  H   UNL     1     -45.850  26.390  25.286  1.00  0.00     0.027 H 
ATOM     57  H   UNL     1     -46.918  25.329  24.342  1.00  0.00     0.027 H 
ATOM     58  H   UNL     1     -47.175  27.225  27.553  1.00  0.00     0.027 H 
ATOM     59  H   UNL     1     -48.804  26.513  27.572  1.00  0.00     0.027 H 
ATOM     60  H   UNL     1     -46.435  24.878  27.173  1.00  0.00     0.027 H 
ATOM     61  H   UNL     1     -47.993  24.445  26.423  1.00  0.00     0.027 H 
ENDBRANCH  39  42
ENDBRANCH  36  39
ENDBRANCH  22  25
ENDBRANCH   3  22
TORSDOF 8
ENDMDL
MODEL 3
REMARK VINA RESULT:      -9.7      3.066     11.109
REMARK SMILES COc1cnc(C#N)c(-c2cn(Cc3ccc4cc(CN5CCC6(CCC6)C5)[nH]c4c3)nn2)c1
REMARK SMILES IDX 10 1 11 2 12 3 32 4 33 5 9 7 3 8 4 9 34 10 5 11 6 14 2 15
REMARK SMILES IDX 1 16 7 20 8 21 13 22 14 25 15 26 31 27 16 28 30 30 17 32
REMARK SMILES IDX 29 34 18 35 19 36 20 39 21 42 22 43 28 44 23 45 24 48 25 53
REMARK SMILES IDX 27 54 26 55
REMARK H PARENT 11 6 4 12 34 13 1 17 1 18 1 19 13 23 13 24 15 29 31 31 16 33
REMARK H PARENT 29 37 18 38 20 40 20 41 22 46 22 47 28 49 28 50 23 51 23 52
REMARK H PARENT 25 56 25 57 27 58 27 59 26 60 26 61
REMARK Flexibility Score: inf
ROOT
ATOM      1  C   UNL     1     -44.272  39.424  28.971  1.00  0.00     0.116 A 
ATOM      2  C   UNL     1     -45.404  38.650  28.858  1.00  0.00     0.054 A 
ATOM      3  N   UNL     1     -45.332  37.803  29.928  1.00  0.00    -0.247 N 
ATOM      4  N   UNL     1     -44.231  38.041  30.666  1.00  0.00    -0.066 NA
ATOM      5  N   UNL     1     -43.581  39.045  30.094  1.00  0.00    -0.130 NA
ATOM      6  H   UNL     1     -46.231  38.622  28.163  1.00  0.00     0.086 H 
ENDROOT
BRANCH   1   7
ATOM      7  C   UNL     1     -43.851  40.517  28.117  1.00  0.00     0.044 A 
ATOM      8  C   UNL     1     -44.224  41.802  26.087  1.00  0.00     0.137 A 
ATOM      9  C   UNL     1     -43.124  42.567  26.443  1.00  0.00     0.070 A 
ATOM     10  C   UNL     1     -44.586  40.764  26.943  1.00  0.00    -0.006 A 
ATOM     11  N   UNL     1     -42.390  42.377  27.566  1.00  0.00    -0.241 NA
ATOM     12  H   UNL     1     -42.793  43.388  25.812  1.00  0.00     0.088 H 
ATOM     13  H   UNL     1     -45.437  40.126  26.720  1.00  0.00     0.067 H 
ATOM     14  C   UNL     1     -42.770  41.360  28.387  1.00  0.00     0.150 A 
BRANCH   8  15
ATOM     15  O   UNL     1     -44.843  42.146  24.921  1.00  0.00    -0.495 OA
BRANCH  15  16
ATOM     16  C   UNL     1     -44.031  42.734  23.911  1.00  0.00     0.078 C 
ATOM     17  H   UNL     1     -44.596  43.559  23.466  1.00  0.00     0.067 H 
ATOM     18  H   UNL     1     -43.112  43.150  24.336  1.00  0.00     0.067 H 
ATOM     19  H   UNL     1     -43.808  42.015  23.115  1.00  0.00     0.067 H 
ENDBRANCH  15  16
ENDBRANCH   8  15
BRANCH  14  20
ATOM     20  C   UNL     1     -41.973  41.253  29.580  1.00  0.00     0.120 C 
ATOM     21  N   UNL     1     -41.300  41.156  30.524  1.00  0.00    -0.191 NA
ENDBRANCH  14  20
ENDBRANCH   1   7
BRANCH   3  22
ATOM     22  C   UNL     1     -46.239  36.725  30.279  1.00  0.00     0.068 C 
ATOM     23  H   UNL     1     -45.693  36.051  30.949  1.00  0.00     0.057 H 
ATOM     24  H   UNL     1     -47.079  37.142  30.845  1.00  0.00     0.057 H 
BRANCH  22  25
ATOM     25  C   UNL     1     -46.740  36.000  29.052  1.00  0.00    -0.024 A 
ATOM     26  C   UNL     1     -47.978  36.345  28.490  1.00  0.00    -0.056 A 
ATOM     27  C   UNL     1     -45.961  34.988  28.466  1.00  0.00    -0.033 A 
ATOM     28  C   UNL     1     -48.461  35.696  27.347  1.00  0.00    -0.052 A 
ATOM     29  H   UNL     1     -48.583  37.133  28.937  1.00  0.00     0.063 H 
ATOM     30  C   UNL     1     -46.460  34.353  27.321  1.00  0.00     0.046 A 
ATOM     31  H   UNL     1     -44.997  34.702  28.878  1.00  0.00     0.065 H 
ATOM     32  C   UNL     1     -47.689  34.681  26.752  1.00  0.00    -0.000 A 
ATOM     33  H   UNL     1     -49.422  35.976  26.925  1.00  0.00     0.063 H 
ATOM     34  N   UNL     1     -45.918  33.348  26.555  1.00  0.00    -0.357 N 
ATOM     35  C   UNL     1     -47.868  33.838  25.621  1.00  0.00    -0.032 A 
ATOM     36  C   UNL     1     -46.762  33.019  25.520  1.00  0.00     0.030 A 
ATOM     37  H   UNL     1     -45.041  32.876  26.732  1.00  0.00     0.166 HD
ATOM     38  H   UNL     1     -48.719  33.834  24.952  1.00  0.00     0.065 H 
BRANCH  36  39
ATOM     39  C   UNL     1     -46.403  31.960  24.533  1.00  0.00     0.039 C 
ATOM     40  H   UNL     1     -46.213  32.405  23.548  1.00  0.00     0.050 H 
ATOM     41  H   UNL     1     -45.460  31.509  24.869  1.00  0.00     0.050 H 
BRANCH  39  42
ATOM     42  N   UNL     1     -47.439  30.925  24.465  1.00  0.00    -0.297 NA
ATOM     43  C   UNL     1     -48.754  31.461  24.083  1.00  0.00    -0.001 C 
ATOM     44  C   UNL     1     -47.134  29.918  23.435  1.00  0.00     0.004 C 
ATOM     45  C   UNL     1     -49.533  30.192  23.763  1.00  0.00    -0.033 C 
ATOM     46  H   UNL     1     -49.234  32.023  24.890  1.00  0.00     0.043 H 
ATOM     47  H   UNL     1     -48.689  32.099  23.193  1.00  0.00     0.043 H 
ATOM     48  C   UNL     1     -48.492  29.324  23.052  1.00  0.00    -0.016 C 
ATOM     49  H   UNL     1     -46.665  30.379  22.558  1.00  0.00     0.044 H 
ATOM     50  H   UNL     1     -46.449  29.163  23.835  1.00  0.00     0.044 H 
ATOM     51  H   UNL     1     -49.866  29.716  24.693  1.00  0.00     0.029 H 
ATOM     52  H   UNL     1     -50.416  30.401  23.150  1.00  0.00     0.029 H 
ATOM     53  C   UNL     1     -48.719  29.095  21.525  1.00  0.00    -0.046 C 
ATOM     54  C   UNL     1     -48.672  27.784  23.205  1.00  0.00    -0.046 C 
ATOM     55  C   UNL     1     -49.480  27.807  21.894  1.00  0.00    -0.052 C 
ATOM     56  H   UNL     1     -47.802  28.905  20.956  1.00  0.00     0.027 H 
ATOM     57  H   UNL     1     -49.303  29.855  20.999  1.00  0.00     0.027 H 
ATOM     58  H   UNL     1     -47.739  27.210  23.127  1.00  0.00     0.027 H 
ATOM     59  H   UNL     1     -49.217  27.438  24.088  1.00  0.00     0.027 H 
ATOM     60  H   UNL     1     -49.325  26.957  21.225  1.00  0.00     0.027 H 
ATOM     61  H   UNL     1     -50.556  27.954  22.040  1.00  0.00     0.027 H 
ENDBRANCH  39  42
ENDBRANCH  36  39
ENDBRANCH  22  25
ENDBRANCH   3  22
TORSDOF 8
ENDMDL
MODEL 4
REMARK VINA RESULT:      -9.6      3.331     11.714
REMARK SMILES COc1cnc(C#N)c(-c2cn(Cc3ccc4cc(CN5CCC6(CCC6)C5)[nH]c4c3)nn2)c1
REMARK SMILES IDX 10 1 11 2 12 3 32 4 33 5 9 7 3 8 4 9 34 10 5 11 6 14 2 15
REMARK SMILES IDX 1 16 7 20 8 21 13 22 14 25 15 26 31 27 16 28 30 30 17 32
REMARK SMILES IDX 29 34 18 35 19 36 20 39 21 42 22 43 28 44 23 45 24 48 25 53
REMARK SMILES IDX 27 54 26 55
REMARK H PARENT 11 6 4 12 34 13 1 17 1 18 1 19 13 23 13 24 15 29 31 31 16 33
REMARK H PARENT 29 37 18 38 20 40 20 41 22 46 22 47 28 49 28 50 23 51 23 52
REMARK H PARENT 25 56 25 57 27 58 27 59 26 60 26 61
REMARK Flexibility Score: inf
ROOT
ATOM      1  C   UNL     1     -46.241  38.905  27.532  1.00  0.00     0.116 A 
ATOM      2  C   UNL     1     -47.335  38.219  27.056  1.00  0.00     0.054 A 
ATOM      3  N   UNL     1     -47.430  37.136  27.884  1.00  0.00    -0.247 N 
ATOM      4  N   UNL     1     -46.464  37.151  28.821  1.00  0.00    -0.066 NA
ATOM      5  N   UNL     1     -45.737  38.242  28.622  1.00  0.00    -0.130 NA
ATOM      6  H   UNL     1     -48.039  38.388  26.254  1.00  0.00     0.086 H 
ENDROOT
BRANCH   1   7
ATOM      7  C   UNL     1     -45.695  40.158  27.049  1.00  0.00     0.044 A 
ATOM      8  C   UNL     1     -43.721  41.453  26.470  1.00  0.00     0.137 A 
ATOM      9  C   UNL     1     -44.577  42.494  26.140  1.00  0.00     0.070 A 
ATOM     10  C   UNL     1     -44.298  40.272  26.930  1.00  0.00    -0.006 A 
ATOM     11  N   UNL     1     -45.927  42.431  26.226  1.00  0.00    -0.241 NA
ATOM     12  H   UNL     1     -44.183  43.441  25.779  1.00  0.00     0.088 H 
ATOM     13  H   UNL     1     -43.683  39.420  27.208  1.00  0.00     0.067 H 
ATOM     14  C   UNL     1     -46.464  41.262  26.672  1.00  0.00     0.150 A 
BRANCH   8  15
ATOM     15  O   UNL     1     -42.389  41.699  26.312  1.00  0.00    -0.495 OA
BRANCH  15  16
ATOM     16  C   UNL     1     -42.012  43.037  26.012  1.00  0.00     0.078 C 
ATOM     17  H   UNL     1     -42.870  43.530  25.546  1.00  0.00     0.067 H 
ATOM     18  H   UNL     1     -41.764  43.592  26.924  1.00  0.00     0.067 H 
ATOM     19  H   UNL     1     -41.183  43.064  25.297  1.00  0.00     0.067 H 
ENDBRANCH  15  16
ENDBRANCH   8  15
BRANCH  14  20
ATOM     20  C   UNL     1     -47.902  41.258  26.690  1.00  0.00     0.120 C 
ATOM     21  N   UNL     1     -49.065  41.223  26.723  1.00  0.00    -0.191 NA
ENDBRANCH  14  20
ENDBRANCH   1   7
BRANCH   3  22
ATOM     22  C   UNL     1     -48.375  36.035  27.812  1.00  0.00     0.068 C 
ATOM     23  H   UNL     1     -48.498  35.652  28.831  1.00  0.00     0.057 H 
ATOM     24  H   UNL     1     -49.346  36.426  27.488  1.00  0.00     0.057 H 
BRANCH  22  25
ATOM     25  C   UNL     1     -47.900  34.957  26.867  1.00  0.00    -0.024 A 
ATOM     26  C   UNL     1     -46.550  34.901  26.488  1.00  0.00    -0.056 A 
ATOM     27  C   UNL     1     -48.807  34.003  26.375  1.00  0.00    -0.033 A 
ATOM     28  C   UNL     1     -46.082  33.905  25.621  1.00  0.00    -0.052 A 
ATOM     29  H   UNL     1     -45.842  35.634  26.871  1.00  0.00     0.063 H 
ATOM     30  C   UNL     1     -48.318  33.014  25.512  1.00  0.00     0.046 A 
ATOM     31  H   UNL     1     -49.857  34.021  26.653  1.00  0.00     0.065 H 
ATOM     32  C   UNL     1     -46.982  32.946  25.123  1.00  0.00    -0.000 A 
ATOM     33  H   UNL     1     -45.034  33.876  25.338  1.00  0.00     0.063 H 
ATOM     34  N   UNL     1     -48.970  31.973  24.893  1.00  0.00    -0.357 N 
ATOM     35  C   UNL     1     -46.854  31.831  24.248  1.00  0.00    -0.032 A 
ATOM     36  C   UNL     1     -48.098  31.247  24.118  1.00  0.00     0.030 A 
ATOM     37  H   UNL     1     -49.960  31.775  24.955  1.00  0.00     0.166 HD
ATOM     38  H   UNL     1     -45.945  31.494  23.767  1.00  0.00     0.065 H 
BRANCH  36  39
ATOM     39  C   UNL     1     -48.553  30.055  23.346  1.00  0.00     0.039 C 
ATOM     40  H   UNL     1     -49.379  30.326  22.676  1.00  0.00     0.050 H 
ATOM     41  H   UNL     1     -47.714  29.740  22.711  1.00  0.00     0.050 H 
BRANCH  39  42
ATOM     42  N   UNL     1     -48.925  28.953  24.239  1.00  0.00    -0.297 NA
ATOM     43  C   UNL     1     -49.350  27.749  23.509  1.00  0.00    -0.001 C 
ATOM     44  C   UNL     1     -47.787  28.510  25.060  1.00  0.00     0.004 C 
ATOM     45  C   UNL     1     -49.351  26.695  24.609  1.00  0.00    -0.033 C 
ATOM     46  H   UNL     1     -50.344  27.851  23.063  1.00  0.00     0.043 H 
ATOM     47  H   UNL     1     -48.633  27.477  22.725  1.00  0.00     0.043 H 
ATOM     48  C   UNL     1     -48.111  27.060  25.429  1.00  0.00    -0.016 C 
ATOM     49  H   UNL     1     -46.850  28.552  24.492  1.00  0.00     0.044 H 
ATOM     50  H   UNL     1     -47.685  29.149  25.943  1.00  0.00     0.044 H 
ATOM     51  H   UNL     1     -50.259  26.792  25.216  1.00  0.00     0.029 H 
ATOM     52  H   UNL     1     -49.317  25.681  24.199  1.00  0.00     0.029 H 
ATOM     53  C   UNL     1     -46.914  26.061  25.342  1.00  0.00    -0.046 C 
ATOM     54  C   UNL     1     -48.168  26.699  26.945  1.00  0.00    -0.046 C 
ATOM     55  C   UNL     1     -47.485  25.364  26.592  1.00  0.00    -0.052 C 
ATOM     56  H   UNL     1     -45.932  26.516  25.514  1.00  0.00     0.027 H 
ATOM     57  H   UNL     1     -46.858  25.444  24.441  1.00  0.00     0.027 H 
ATOM     58  H   UNL     1     -47.551  27.343  27.585  1.00  0.00     0.027 H 
ATOM     59  H   UNL     1     -49.162  26.616  27.392  1.00  0.00     0.027 H 
ATOM     60  H   UNL     1     -46.747  25.002  27.313  1.00  0.00     0.027 H 
ATOM     61  H   UNL     1     -48.188  24.554  26.366  1.00  0.00     0.027 H 
ENDBRANCH  39  42
ENDBRANCH  36  39
ENDBRANCH  22  25
ENDBRANCH   3  22
TORSDOF 8
ENDMDL
MODEL 5
REMARK VINA RESULT:      -9.2      3.370     11.187
REMARK SMILES COc1cnc(C#N)c(-c2cn(Cc3ccc4cc(CN5CCC6(CCC6)C5)[nH]c4c3)nn2)c1
REMARK SMILES IDX 10 1 11 2 12 3 32 4 33 5 9 7 3 8 4 9 34 10 5 11 6 14 2 15
REMARK SMILES IDX 1 16 7 20 8 21 13 22 14 25 15 26 31 27 16 28 30 30 17 32
REMARK SMILES IDX 29 34 18 35 19 36 20 39 21 42 22 43 28 44 23 45 24 48 25 53
REMARK SMILES IDX 27 54 26 55
REMARK H PARENT 11 6 4 12 34 13 1 17 1 18 1 19 13 23 13 24 15 29 31 31 16 33
REMARK H PARENT 29 37 18 38 20 40 20 41 22 46 22 47 28 49 28 50 23 51 23 52
REMARK H PARENT 25 56 25 57 27 58 27 59 26 60 26 61
REMARK Flexibility Score: inf
ROOT
ATOM      1  C   UNL     1     -45.415  40.968  26.730  1.00  0.00     0.116 A 
ATOM      2  C   UNL     1     -45.579  39.987  27.680  1.00  0.00     0.054 A 
ATOM      3  N   UNL     1     -46.901  39.655  27.587  1.00  0.00    -0.247 N 
ATOM      4  N   UNL     1     -47.519  40.375  26.632  1.00  0.00    -0.066 NA
ATOM      5  N   UNL     1     -46.611  41.175  26.090  1.00  0.00    -0.130 NA
ATOM      6  H   UNL     1     -44.915  39.497  28.380  1.00  0.00     0.086 H 
ENDROOT
BRANCH   1   7
ATOM      7  C   UNL     1     -44.197  41.666  26.370  1.00  0.00     0.044 A 
ATOM      8  C   UNL     1     -43.022  43.053  24.755  1.00  0.00     0.137 A 
ATOM      9  C   UNL     1     -41.931  43.016  25.610  1.00  0.00     0.070 A 
ATOM     10  C   UNL     1     -44.167  42.365  25.149  1.00  0.00    -0.006 A 
ATOM     11  N   UNL     1     -41.912  42.368  26.800  1.00  0.00    -0.241 NA
ATOM     12  H   UNL     1     -41.009  43.532  25.353  1.00  0.00     0.088 H 
ATOM     13  H   UNL     1     -45.055  42.352  24.523  1.00  0.00     0.067 H 
ATOM     14  C   UNL     1     -43.047  41.710  27.162  1.00  0.00     0.150 A 
BRANCH   8  15
ATOM     15  O   UNL     1     -42.857  43.762  23.602  1.00  0.00    -0.495 OA
BRANCH  15  16
ATOM     16  C   UNL     1     -43.677  44.912  23.430  1.00  0.00     0.078 C 
ATOM     17  H   UNL     1     -44.425  44.678  22.666  1.00  0.00     0.067 H 
ATOM     18  H   UNL     1     -44.211  45.158  24.354  1.00  0.00     0.067 H 
ATOM     19  H   UNL     1     -43.091  45.766  23.073  1.00  0.00     0.067 H 
ENDBRANCH  15  16
ENDBRANCH   8  15
BRANCH  14  20
ATOM     20  C   UNL     1     -42.964  41.089  28.457  1.00  0.00     0.120 C 
ATOM     21  N   UNL     1     -42.881  40.557  29.489  1.00  0.00    -0.191 NA
ENDBRANCH  14  20
ENDBRANCH   1   7
BRANCH   3  22
ATOM     22  C   UNL     1     -47.645  38.706  28.396  1.00  0.00     0.068 C 
ATOM     23  H   UNL     1     -47.461  38.966  29.445  1.00  0.00     0.057 H 
ATOM     24  H   UNL     1     -48.715  38.844  28.206  1.00  0.00     0.057 H 
BRANCH  22  25
ATOM     25  C   UNL     1     -47.237  37.283  28.097  1.00  0.00    -0.024 A 
ATOM     26  C   UNL     1     -46.830  36.436  29.139  1.00  0.00    -0.056 A 
ATOM     27  C   UNL     1     -47.275  36.803  26.776  1.00  0.00    -0.033 A 
ATOM     28  C   UNL     1     -46.457  35.109  28.890  1.00  0.00    -0.052 A 
ATOM     29  H   UNL     1     -46.805  36.801  30.164  1.00  0.00     0.063 H 
ATOM     30  C   UNL     1     -46.901  35.472  26.549  1.00  0.00     0.046 A 
ATOM     31  H   UNL     1     -47.588  37.435  25.950  1.00  0.00     0.065 H 
ATOM     32  C   UNL     1     -46.492  34.619  27.572  1.00  0.00    -0.000 A 
ATOM     33  H   UNL     1     -46.146  34.467  29.708  1.00  0.00     0.063 H 
ATOM     34  N   UNL     1     -46.846  34.752  25.379  1.00  0.00    -0.357 N 
ATOM     35  C   UNL     1     -46.187  33.363  26.976  1.00  0.00    -0.032 A 
ATOM     36  C   UNL     1     -46.411  33.470  25.619  1.00  0.00     0.030 A 
ATOM     37  H   UNL     1     -47.055  35.107  24.455  1.00  0.00     0.166 HD
ATOM     38  H   UNL     1     -45.841  32.476  27.491  1.00  0.00     0.065 H 
BRANCH  36  39
ATOM     39  C   UNL     1     -46.271  32.478  24.514  1.00  0.00     0.039 C 
ATOM     40  H   UNL     1     -46.439  32.962  23.543  1.00  0.00     0.050 H 
ATOM     41  H   UNL     1     -45.231  32.128  24.522  1.00  0.00     0.050 H 
BRANCH  39  42
ATOM     42  N   UNL     1     -47.170  31.336  24.707  1.00  0.00    -0.297 NA
ATOM     43  C   UNL     1     -48.585  31.689  24.520  1.00  0.00    -0.001 C 
ATOM     44  C   UNL     1     -46.918  30.273  23.722  1.00  0.00     0.004 C 
ATOM     45  C   UNL     1     -49.246  30.320  24.440  1.00  0.00    -0.033 C 
ATOM     46  H   UNL     1     -48.991  32.273  25.352  1.00  0.00     0.043 H 
ATOM     47  H   UNL     1     -48.745  32.241  23.585  1.00  0.00     0.043 H 
ATOM     48  C   UNL     1     -48.237  29.503  23.628  1.00  0.00    -0.016 C 
ATOM     49  H   UNL     1     -46.658  30.694  22.743  1.00  0.00     0.044 H 
ATOM     50  H   UNL     1     -46.090  29.638  24.054  1.00  0.00     0.044 H 
ATOM     51  H   UNL     1     -49.361  29.903  25.448  1.00  0.00     0.029 H 
ATOM     52  H   UNL     1     -50.236  30.373  23.975  1.00  0.00     0.029 H 
ATOM     53  C   UNL     1     -48.682  29.103  22.187  1.00  0.00    -0.046 C 
ATOM     54  C   UNL     1     -48.201  27.974  23.930  1.00  0.00    -0.046 C 
ATOM     55  C   UNL     1     -49.209  27.783  22.781  1.00  0.00    -0.052 C 
ATOM     56  H   UNL     1     -47.854  28.958  21.483  1.00  0.00     0.027 H 
ATOM     57  H   UNL     1     -49.432  29.742  21.712  1.00  0.00     0.027 H 
ATOM     58  H   UNL     1     -47.230  27.499  23.735  1.00  0.00     0.027 H 
ATOM     59  H   UNL     1     -48.548  27.660  24.918  1.00  0.00     0.027 H 
ATOM     60  H   UNL     1     -49.064  26.893  22.163  1.00  0.00     0.027 H 
ATOM     61  H   UNL     1     -50.257  27.828  23.100  1.00  0.00     0.027 H 
ENDBRANCH  39  42
ENDBRANCH  36  39
ENDBRANCH  22  25
ENDBRANCH   3  22
TORSDOF 8
ENDMDL
MODEL 6
REMARK VINA RESULT:      -9.1      3.424     11.545
REMARK SMILES COc1cnc(C#N)c(-c2cn(Cc3ccc4cc(CN5CCC6(CCC6)C5)[nH]c4c3)nn2)c1
REMARK SMILES IDX 10 1 11 2 12 3 32 4 33 5 9 7 3 8 4 9 34 10 5 11 6 14 2 15
REMARK SMILES IDX 1 16 7 20 8 21 13 22 14 25 15 26 31 27 16 28 30 30 17 32
REMARK SMILES IDX 29 34 18 35 19 36 20 39 21 42 22 43 28 44 23 45 24 48 25 53
REMARK SMILES IDX 27 54 26 55
REMARK H PARENT 11 6 4 12 34 13 1 17 1 18 1 19 13 23 13 24 15 29 31 31 16 33
REMARK H PARENT 29 37 18 38 20 40 20 41 22 46 22 47 28 49 28 50 23 51 23 52
REMARK H PARENT 25 56 25 57 27 58 27 59 26 60 26 61
REMARK Flexibility Score: inf
ROOT
ATOM      1  C   UNL     1     -46.642  38.677  27.667  1.00  0.00     0.116 A 
ATOM      2  C   UNL     1     -46.527  37.524  26.926  1.00  0.00     0.054 A 
ATOM      3  N   UNL     1     -45.775  36.698  27.714  1.00  0.00    -0.247 N 
ATOM      4  N   UNL     1     -45.451  37.295  28.876  1.00  0.00    -0.066 NA
ATOM      5  N   UNL     1     -45.990  38.506  28.863  1.00  0.00    -0.130 NA
ATOM      6  H   UNL     1     -46.900  37.208  25.961  1.00  0.00     0.086 H 
ENDROOT
BRANCH   1   7
ATOM      7  C   UNL     1     -47.366  39.886  27.329  1.00  0.00     0.044 A 
ATOM      8  C   UNL     1     -49.446  41.139  27.450  1.00  0.00     0.137 A 
ATOM      9  C   UNL     1     -48.810  42.143  26.734  1.00  0.00     0.070 A 
ATOM     10  C   UNL     1     -48.704  39.998  27.748  1.00  0.00    -0.006 A 
ATOM     11  N   UNL     1     -47.523  42.088  26.317  1.00  0.00    -0.241 NA
ATOM     12  H   UNL     1     -49.341  43.055  26.470  1.00  0.00     0.088 H 
ATOM     13  H   UNL     1     -49.144  39.175  28.303  1.00  0.00     0.067 H 
ATOM     14  C   UNL     1     -46.820  40.965  26.628  1.00  0.00     0.150 A 
BRANCH   8  15
ATOM     15  O   UNL     1     -50.746  41.374  27.788  1.00  0.00    -0.495 OA
BRANCH  15  16
ATOM     16  C   UNL     1     -51.644  41.673  26.726  1.00  0.00     0.078 C 
ATOM     17  H   UNL     1     -51.185  41.331  25.794  1.00  0.00     0.067 H 
ATOM     18  H   UNL     1     -52.591  41.135  26.847  1.00  0.00     0.067 H 
ATOM     19  H   UNL     1     -51.811  42.752  26.641  1.00  0.00     0.067 H 
ENDBRANCH  15  16
ENDBRANCH   8  15
BRANCH  14  20
ATOM     20  C   UNL     1     -45.449  41.003  26.195  1.00  0.00     0.120 C 
ATOM     21  N   UNL     1     -44.343  41.071  25.839  1.00  0.00    -0.191 NA
ENDBRANCH  14  20
ENDBRANCH   1   7
BRANCH   3  22
ATOM     22  C   UNL     1     -45.295  35.363  27.408  1.00  0.00     0.068 C 
ATOM     23  H   UNL     1     -44.458  35.475  26.710  1.00  0.00     0.057 H 
ATOM     24  H   UNL     1     -44.900  34.912  28.325  1.00  0.00     0.057 H 
BRANCH  22  25
ATOM     25  C   UNL     1     -46.390  34.499  26.828  1.00  0.00    -0.024 A 
ATOM     26  C   UNL     1     -47.736  34.826  27.052  1.00  0.00    -0.056 A 
ATOM     27  C   UNL     1     -46.061  33.373  26.053  1.00  0.00    -0.033 A 
ATOM     28  C   UNL     1     -48.769  34.048  26.516  1.00  0.00    -0.052 A 
ATOM     29  H   UNL     1     -47.995  35.701  27.646  1.00  0.00     0.063 H 
ATOM     30  C   UNL     1     -47.110  32.610  25.524  1.00  0.00     0.046 A 
ATOM     31  H   UNL     1     -45.028  33.097  25.861  1.00  0.00     0.065 H 
ATOM     32  C   UNL     1     -48.451  32.919  25.739  1.00  0.00    -0.000 A 
ATOM     33  H   UNL     1     -49.806  34.316  26.699  1.00  0.00     0.063 H 
ATOM     34  N   UNL     1     -47.079  31.478  24.743  1.00  0.00    -0.357 N 
ATOM     35  C   UNL     1     -49.225  31.934  25.065  1.00  0.00    -0.032 A 
ATOM     36  C   UNL     1     -48.354  31.052  24.458  1.00  0.00     0.030 A 
ATOM     37  H   UNL     1     -46.246  30.990  24.442  1.00  0.00     0.166 HD
ATOM     38  H   UNL     1     -50.305  31.881  25.028  1.00  0.00     0.065 H 
BRANCH  36  39
ATOM     39  C   UNL     1     -48.599  29.845  23.616  1.00  0.00     0.039 C 
ATOM     40  H   UNL     1     -49.362  30.058  22.856  1.00  0.00     0.050 H 
ATOM     41  H   UNL     1     -47.665  29.627  23.082  1.00  0.00     0.050 H 
BRANCH  39  42
ATOM     42  N   UNL     1     -48.969  28.689  24.438  1.00  0.00    -0.297 NA
ATOM     43  C   UNL     1     -49.415  27.541  23.636  1.00  0.00    -0.001 C 
ATOM     44  C   UNL     1     -47.823  28.181  25.210  1.00  0.00     0.004 C 
ATOM     45  C   UNL     1     -49.410  26.415  24.661  1.00  0.00    -0.033 C 
ATOM     46  H   UNL     1     -50.415  27.681  23.213  1.00  0.00     0.043 H 
ATOM     47  H   UNL     1     -48.712  27.316  22.824  1.00  0.00     0.043 H 
ATOM     48  C   UNL     1     -48.155  26.713  25.485  1.00  0.00    -0.016 C 
ATOM     49  H   UNL     1     -46.894  28.255  24.632  1.00  0.00     0.044 H 
ATOM     50  H   UNL     1     -47.702  28.759  26.132  1.00  0.00     0.044 H 
ATOM     51  H   UNL     1     -50.308  26.478  25.287  1.00  0.00     0.029 H 
ATOM     52  H   UNL     1     -49.392  25.430  24.184  1.00  0.00     0.029 H 
ATOM     53  C   UNL     1     -46.969  25.712  25.313  1.00  0.00    -0.046 C 
ATOM     54  C   UNL     1     -48.193  26.251  26.974  1.00  0.00    -0.046 C 
ATOM     55  C   UNL     1     -47.528  24.937  26.522  1.00  0.00    -0.052 C 
ATOM     56  H   UNL     1     -45.980  26.147  25.500  1.00  0.00     0.027 H 
ATOM     57  H   UNL     1     -46.931  25.157  24.372  1.00  0.00     0.027 H 
ATOM     58  H   UNL     1     -47.561  26.845  27.647  1.00  0.00     0.027 H 
ATOM     59  H   UNL     1     -49.181  26.146  27.430  1.00  0.00     0.027 H 
ATOM     60  H   UNL     1     -46.783  24.522  27.205  1.00  0.00     0.027 H 
ATOM     61  H   UNL     1     -48.242  24.150  26.252  1.00  0.00     0.027 H 
ENDBRANCH  39  42
ENDBRANCH  36  39
ENDBRANCH  22  25
ENDBRANCH   3  22
TORSDOF 8
ENDMDL
MODEL 7
REMARK VINA RESULT:      -8.9      4.595     11.633
REMARK SMILES COc1cnc(C#N)c(-c2cn(Cc3ccc4cc(CN5CCC6(CCC6)C5)[nH]c4c3)nn2)c1
REMARK SMILES IDX 10 1 11 2 12 3 32 4 33 5 9 7 3 8 4 9 34 10 5 11 6 14 2 15
REMARK SMILES IDX 1 16 7 20 8 21 13 22 14 25 15 26 31 27 16 28 30 30 17 32
REMARK SMILES IDX 29 34 18 35 19 36 20 39 21 42 22 43 28 44 23 45 24 48 25 53
REMARK SMILES IDX 27 54 26 55
REMARK H PARENT 11 6 4 12 34 13 1 17 1 18 1 19 13 23 13 24 15 29 31 31 16 33
REMARK H PARENT 29 37 18 38 20 40 20 41 22 46 22 47 28 49 28 50 23 51 23 52
REMARK H PARENT 25 56 25 57 27 58 27 59 26 60 26 61
REMARK Flexibility Score: inf
ROOT
ATOM      1  C   UNL     1     -47.907  37.436  28.060  1.00  0.00     0.116 A 
ATOM      2  C   UNL     1     -47.474  36.823  26.907  1.00  0.00     0.054 A 
ATOM      3  N   UNL     1     -46.720  35.775  27.353  1.00  0.00    -0.247 N 
ATOM      4  N   UNL     1     -46.694  35.731  28.699  1.00  0.00    -0.066 NA
ATOM      5  N   UNL     1     -47.431  36.740  29.142  1.00  0.00    -0.130 NA
ATOM      6  H   UNL     1     -47.628  37.007  25.852  1.00  0.00     0.086 H 
ENDROOT
BRANCH   1   7
ATOM      7  C   UNL     1     -48.772  38.592  28.184  1.00  0.00     0.044 A 
ATOM      8  C   UNL     1     -48.970  41.014  28.265  1.00  0.00     0.137 A 
ATOM      9  C   UNL     1     -50.338  40.835  28.411  1.00  0.00     0.070 A 
ATOM     10  C   UNL     1     -48.185  39.869  28.150  1.00  0.00    -0.006 A 
ATOM     11  N   UNL     1     -50.954  39.629  28.439  1.00  0.00    -0.241 NA
ATOM     12  H   UNL     1     -51.001  41.692  28.508  1.00  0.00     0.088 H 
ATOM     13  H   UNL     1     -47.106  39.941  28.036  1.00  0.00     0.067 H 
ATOM     14  C   UNL     1     -50.162  38.529  28.318  1.00  0.00     0.150 A 
BRANCH   8  15
ATOM     15  O   UNL     1     -48.532  42.305  28.252  1.00  0.00    -0.495 OA
BRANCH  15  16
ATOM     16  C   UNL     1     -49.521  43.322  28.360  1.00  0.00     0.078 C 
ATOM     17  H   UNL     1     -49.419  43.981  27.492  1.00  0.00     0.067 H 
ATOM     18  H   UNL     1     -50.530  42.896  28.337  1.00  0.00     0.067 H 
ATOM     19  H   UNL     1     -49.369  43.928  29.259  1.00  0.00     0.067 H 
ENDBRANCH  15  16
ENDBRANCH   8  15
BRANCH  14  20
ATOM     20  C   UNL     1     -50.893  37.289  28.308  1.00  0.00     0.120 C 
ATOM     21  N   UNL     1     -51.514  36.306  28.287  1.00  0.00    -0.191 NA
ENDBRANCH  14  20
ENDBRANCH   1   7
BRANCH   3  22
ATOM     22  C   UNL     1     -45.968  34.814  26.567  1.00  0.00     0.068 C 
ATOM     23  H   UNL     1     -45.479  35.373  25.760  1.00  0.00     0.057 H 
ATOM     24  H   UNL     1     -45.179  34.386  27.194  1.00  0.00     0.057 H 
BRANCH  22  25
ATOM     25  C   UNL     1     -46.859  33.722  26.024  1.00  0.00    -0.024 A 
ATOM     26  C   UNL     1     -48.206  33.658  26.411  1.00  0.00    -0.056 A 
ATOM     27  C   UNL     1     -46.343  32.776  25.121  1.00  0.00    -0.033 A 
ATOM     28  C   UNL     1     -49.056  32.662  25.914  1.00  0.00    -0.052 A 
ATOM     29  H   UNL     1     -48.613  34.392  27.105  1.00  0.00     0.063 H 
ATOM     30  C   UNL     1     -47.211  31.791  24.634  1.00  0.00     0.046 A 
ATOM     31  H   UNL     1     -45.305  32.803  24.802  1.00  0.00     0.065 H 
ATOM     32  C   UNL     1     -48.549  31.711  25.011  1.00  0.00    -0.000 A 
ATOM     33  H   UNL     1     -50.097  32.628  26.224  1.00  0.00     0.063 H 
ATOM     34  N   UNL     1     -46.979  30.759  23.755  1.00  0.00    -0.357 N 
ATOM     35  C   UNL     1     -49.113  30.595  24.331  1.00  0.00    -0.032 A 
ATOM     36  C   UNL     1     -48.122  30.020  23.563  1.00  0.00     0.030 A 
ATOM     37  H   UNL     1     -46.090  30.533  23.328  1.00  0.00     0.166 HD
ATOM     38  H   UNL     1     -50.137  30.253  24.399  1.00  0.00     0.065 H 
BRANCH  36  39
ATOM     39  C   UNL     1     -48.141  28.845  22.644  1.00  0.00     0.039 C 
ATOM     40  H   UNL     1     -49.136  28.728  22.195  1.00  0.00     0.050 H 
ATOM     41  H   UNL     1     -47.442  29.061  21.826  1.00  0.00     0.050 H 
BRANCH  39  42
ATOM     42  N   UNL     1     -47.717  27.623  23.335  1.00  0.00    -0.297 NA
ATOM     43  C   UNL     1     -46.333  27.698  23.823  1.00  0.00    -0.001 C 
ATOM     44  C   UNL     1     -48.524  27.371  24.539  1.00  0.00     0.004 C 
ATOM     45  C   UNL     1     -46.260  26.497  24.757  1.00  0.00    -0.033 C 
ATOM     46  H   UNL     1     -45.594  27.615  23.020  1.00  0.00     0.043 H 
ATOM     47  H   UNL     1     -46.150  28.624  24.383  1.00  0.00     0.043 H 
ATOM     48  C   UNL     1     -47.630  26.514  25.439  1.00  0.00    -0.016 C 
ATOM     49  H   UNL     1     -48.780  28.309  25.047  1.00  0.00     0.044 H 
ATOM     50  H   UNL     1     -49.455  26.860  24.271  1.00  0.00     0.044 H 
ATOM     51  H   UNL     1     -46.129  25.579  24.172  1.00  0.00     0.029 H 
ATOM     52  H   UNL     1     -45.424  26.579  25.460  1.00  0.00     0.029 H 
ATOM     53  C   UNL     1     -47.637  26.895  26.953  1.00  0.00    -0.046 C 
ATOM     54  C   UNL     1     -48.182  25.128  25.891  1.00  0.00    -0.046 C 
ATOM     55  C   UNL     1     -47.545  25.390  27.268  1.00  0.00    -0.052 C 
ATOM     56  H   UNL     1     -48.572  27.351  27.299  1.00  0.00     0.027 H 
ATOM     57  H   UNL     1     -46.801  27.505  27.307  1.00  0.00     0.027 H 
ATOM     58  H   UNL     1     -49.278  25.069  25.926  1.00  0.00     0.027 H 
ATOM     59  H   UNL     1     -47.805  24.252  25.356  1.00  0.00     0.027 H 
ATOM     60  H   UNL     1     -48.123  25.050  28.132  1.00  0.00     0.027 H 
ATOM     61  H   UNL     1     -46.518  25.018  27.359  1.00  0.00     0.027 H 
ENDBRANCH  39  42
ENDBRANCH  36  39
ENDBRANCH  22  25
ENDBRANCH   3  22
TORSDOF 8
ENDMDL
