MODEL 1
REMARK VINA RESULT:     -10.1      0.000      0.000
REMARK SMILES CNc1ccc2ccc(OC[C@@H]3C[C@@H](O)[C@H](n4cc(C5CCCC5)c5c(N)ncnc54)O3)cc2n1
REMARK SMILES IDX 11 1 10 4 9 5 3 6 4 7 35 8 5 9 34 11 6 12 33 14 7 15 8 17
REMARK SMILES IDX 2 20 1 22 12 26 13 27 32 28 14 30 16 33 15 36 17 38 18 39
REMARK SMILES IDX 31 40 19 41 25 43 30 44 26 45 29 46 28 47 20 49 21 50 24 51
REMARK SMILES IDX 22 53 23 56 27 63
REMARK H PARENT 11 2 11 3 4 10 5 13 33 16 7 18 8 19 2 21 1 23 1 24 1 25 12 29
REMARK H PARENT 13 31 13 32 14 34 16 35 15 37 18 42 29 48 20 52 21 54 21 55
REMARK H PARENT 24 57 24 58 22 59 22 60 23 61 23 62 27 64 27 65
REMARK Flexibility Score: inf
ROOT
ATOM      1  C   UNL     1     -46.152  35.901  27.054  1.00  0.00     0.115 C 
ATOM      2  H   UNL     1     -45.573  34.985  26.887  1.00  0.00     0.073 H 
ATOM      3  H   UNL     1     -45.820  36.692  26.370  1.00  0.00     0.073 H 
ENDROOT
BRANCH   1   4
ATOM      4  O   UNL     1     -47.538  35.625  26.838  1.00  0.00    -0.491 OA
BRANCH   4   5
ATOM      5  C   UNL     1     -47.873  34.435  26.261  1.00  0.00     0.121 A 
ATOM      6  C   UNL     1     -46.159  30.961  23.485  1.00  0.00     0.126 A 
ATOM      7  C   UNL     1     -47.349  30.248  23.570  1.00  0.00    -0.019 A 
ATOM      8  N   UNL     1     -45.995  32.137  24.125  1.00  0.00    -0.231 NA
ATOM      9  C   UNL     1     -48.406  30.765  24.311  1.00  0.00    -0.049 A 
ATOM     10  H   UNL     1     -47.451  29.288  23.073  1.00  0.00     0.066 H 
ATOM     11  C   UNL     1     -47.013  32.644  24.844  1.00  0.00     0.076 A 
ATOM     12  C   UNL     1     -48.253  31.990  24.966  1.00  0.00     0.001 A 
ATOM     13  H   UNL     1     -49.337  30.207  24.376  1.00  0.00     0.063 H 
ATOM     14  C   UNL     1     -46.852  33.858  25.497  1.00  0.00     0.007 A 
ATOM     15  C   UNL     1     -49.287  32.563  25.725  1.00  0.00    -0.049 A 
ATOM     16  H   UNL     1     -45.898  34.371  25.412  1.00  0.00     0.069 H 
ATOM     17  C   UNL     1     -49.096  33.785  26.371  1.00  0.00    -0.019 A 
ATOM     18  H   UNL     1     -50.246  32.057  25.818  1.00  0.00     0.063 H 
ATOM     19  H   UNL     1     -49.918  34.198  26.946  1.00  0.00     0.066 H 
BRANCH   6  20
ATOM     20  N   UNL     1     -45.106  30.396  22.743  1.00  0.00    -0.373 N 
ATOM     21  H   UNL     1     -44.225  30.636  23.189  1.00  0.00     0.161 HD
BRANCH  20  22
ATOM     22  C   UNL     1     -45.229  28.962  22.536  1.00  0.00     0.005 C 
ATOM     23  H   UNL     1     -44.982  28.445  23.469  1.00  0.00     0.045 H 
ATOM     24  H   UNL     1     -44.531  28.604  21.772  1.00  0.00     0.045 H 
ATOM     25  H   UNL     1     -46.252  28.679  22.262  1.00  0.00     0.045 H 
ENDBRANCH  20  22
ENDBRANCH   6  20
ENDBRANCH   4   5
ENDBRANCH   1   4
BRANCH   1  26
ATOM     26  C   UNL     1     -45.944  36.376  28.496  1.00  0.00     0.097 C 
ATOM     27  C   UNL     1     -46.970  37.384  28.995  1.00  0.00     0.007 C 
ATOM     28  O   UNL     1     -44.644  36.988  28.650  1.00  0.00    -0.348 OA
ATOM     29  H   UNL     1     -45.937  35.495  29.150  1.00  0.00     0.064 H 
ATOM     30  C   UNL     1     -46.195  38.123  30.060  1.00  0.00     0.102 C 
ATOM     31  H   UNL     1     -47.871  36.886  29.366  1.00  0.00     0.032 H 
ATOM     32  H   UNL     1     -47.263  38.088  28.208  1.00  0.00     0.032 H 
ATOM     33  C   UNL     1     -44.783  38.185  29.461  1.00  0.00     0.161 C 
ATOM     34  H   UNL     1     -46.635  39.097  30.290  1.00  0.00     0.065 H 
ATOM     35  H   UNL     1     -44.002  38.149  30.230  1.00  0.00     0.088 H 
BRANCH  30  36
ATOM     36  O   UNL     1     -46.236  37.346  31.269  1.00  0.00    -0.388 OA
ATOM     37  H   UNL     1     -46.625  37.890  31.977  1.00  0.00     0.211 HD
ENDBRANCH  30  36
BRANCH  33  38
ATOM     38  N   UNL     1     -44.521  39.370  28.651  1.00  0.00    -0.303 N 
ATOM     39  C   UNL     1     -45.208  39.794  27.547  1.00  0.00     0.013 A 
ATOM     40  C   UNL     1     -43.464  40.216  28.869  1.00  0.00     0.147 A 
ATOM     41  C   UNL     1     -44.625  40.954  27.057  1.00  0.00    -0.014 A 
ATOM     42  H   UNL     1     -46.061  39.239  27.177  1.00  0.00     0.082 H 
ATOM     43  C   UNL     1     -43.496  41.230  27.913  1.00  0.00     0.065 A 
ATOM     44  N   UNL     1     -42.565  40.062  29.856  1.00  0.00    -0.218 NA
ATOM     45  C   UNL     1     -42.470  42.191  28.018  1.00  0.00     0.136 A 
ATOM     46  C   UNL     1     -41.643  41.033  29.844  1.00  0.00     0.120 A 
ATOM     47  N   UNL     1     -41.553  42.074  29.001  1.00  0.00    -0.219 NA
ATOM     48  H   UNL     1     -40.877  40.975  30.611  1.00  0.00     0.106 H 
BRANCH  41  49
ATOM     49  C   UNL     1     -45.145  41.677  25.848  1.00  0.00    -0.014 C 
ATOM     50  C   UNL     1     -44.142  41.876  24.703  1.00  0.00    -0.046 C 
ATOM     51  C   UNL     1     -45.741  43.056  26.133  1.00  0.00    -0.046 C 
ATOM     52  H   UNL     1     -45.962  41.066  25.431  1.00  0.00     0.035 H 
ATOM     53  C   UNL     1     -44.351  43.305  24.201  1.00  0.00    -0.053 C 
ATOM     54  H   UNL     1     -44.357  41.163  23.898  1.00  0.00     0.027 H 
ATOM     55  H   UNL     1     -43.098  41.710  24.988  1.00  0.00     0.027 H 
ATOM     56  C   UNL     1     -45.689  43.743  24.777  1.00  0.00    -0.053 C 
ATOM     57  H   UNL     1     -45.161  43.617  26.871  1.00  0.00     0.027 H 
ATOM     58  H   UNL     1     -46.765  42.990  26.512  1.00  0.00     0.027 H 
ATOM     59  H   UNL     1     -43.552  43.955  24.576  1.00  0.00     0.027 H 
ATOM     60  H   UNL     1     -44.335  43.363  23.108  1.00  0.00     0.027 H 
ATOM     61  H   UNL     1     -46.506  43.383  24.140  1.00  0.00     0.027 H 
ATOM     62  H   UNL     1     -45.773  44.829  24.857  1.00  0.00     0.027 H 
ENDBRANCH  41  49
BRANCH  45  63
ATOM     63  N   UNL     1     -42.314  43.293  27.191  1.00  0.00    -0.383 N 
ATOM     64  H   UNL     1     -43.105  43.917  27.295  1.00  0.00     0.158 HD
ATOM     65  H   UNL     1     -42.048  43.073  26.245  1.00  0.00     0.158 HD
ENDBRANCH  45  63
ENDBRANCH  33  38
ENDBRANCH   1  26
TORSDOF 9
ENDMDL
MODEL 2
REMARK VINA RESULT:      -9.6      2.849     11.563
REMARK SMILES CNc1ccc2ccc(OC[C@@H]3C[C@@H](O)[C@H](n4cc(C5CCCC5)c5c(N)ncnc54)O3)cc2n1
REMARK SMILES IDX 11 1 10 4 9 5 3 6 4 7 35 8 5 9 34 11 6 12 33 14 7 15 8 17
REMARK SMILES IDX 2 20 1 22 12 26 13 27 32 28 14 30 16 33 15 36 17 38 18 39
REMARK SMILES IDX 31 40 19 41 25 43 30 44 26 45 29 46 28 47 20 49 21 50 24 51
REMARK SMILES IDX 22 53 23 56 27 63
REMARK H PARENT 11 2 11 3 4 10 5 13 33 16 7 18 8 19 2 21 1 23 1 24 1 25 12 29
REMARK H PARENT 13 31 13 32 14 34 16 35 15 37 18 42 29 48 20 52 21 54 21 55
REMARK H PARENT 24 57 24 58 22 59 22 60 23 61 23 62 27 64 27 65
REMARK Flexibility Score: inf
ROOT
ATOM      1  C   UNL     1     -46.469  32.910  26.050  1.00  0.00     0.115 C 
ATOM      2  H   UNL     1     -45.816  33.625  25.536  1.00  0.00     0.073 H 
ATOM      3  H   UNL     1     -45.963  31.944  26.163  1.00  0.00     0.073 H 
ENDROOT
BRANCH   1   4
ATOM      4  O   UNL     1     -46.812  33.429  27.337  1.00  0.00    -0.491 OA
BRANCH   4   5
ATOM      5  C   UNL     1     -47.128  34.753  27.430  1.00  0.00     0.121 A 
ATOM      6  C   UNL     1     -45.245  39.038  28.332  1.00  0.00     0.126 A 
ATOM      7  C   UNL     1     -46.468  39.665  28.130  1.00  0.00    -0.019 A 
ATOM      8  N   UNL     1     -45.107  37.703  28.198  1.00  0.00    -0.231 NA
ATOM      9  C   UNL     1     -47.585  38.901  27.807  1.00  0.00    -0.049 A 
ATOM     10  H   UNL     1     -46.553  40.744  28.212  1.00  0.00     0.066 H 
ATOM     11  C   UNL     1     -46.182  36.957  27.885  1.00  0.00     0.076 A 
ATOM     12  C   UNL     1     -47.457  37.516  27.681  1.00  0.00     0.001 A 
ATOM     13  H   UNL     1     -48.542  39.392  27.651  1.00  0.00     0.063 H 
ATOM     14  C   UNL     1     -46.048  35.582  27.755  1.00  0.00     0.007 A 
ATOM     15  C   UNL     1     -48.551  36.693  27.361  1.00  0.00    -0.049 A 
ATOM     16  H   UNL     1     -45.067  35.139  27.909  1.00  0.00     0.069 H 
ATOM     17  C   UNL     1     -48.385  35.313  27.236  1.00  0.00    -0.019 A 
ATOM     18  H   UNL     1     -49.537  37.126  27.204  1.00  0.00     0.063 H 
ATOM     19  H   UNL     1     -49.252  34.710  26.990  1.00  0.00     0.066 H 
BRANCH   6  20
ATOM     20  N   UNL     1     -44.135  39.846  28.637  1.00  0.00    -0.373 N 
ATOM     21  H   UNL     1     -43.352  39.248  28.885  1.00  0.00     0.161 HD
BRANCH  20  22
ATOM     22  C   UNL     1     -43.779  40.787  27.586  1.00  0.00     0.005 C 
ATOM     23  H   UNL     1     -44.426  41.667  27.664  1.00  0.00     0.045 H 
ATOM     24  H   UNL     1     -43.934  40.356  26.592  1.00  0.00     0.045 H 
ATOM     25  H   UNL     1     -42.743  41.129  27.683  1.00  0.00     0.045 H 
ENDBRANCH  20  22
ENDBRANCH   6  20
ENDBRANCH   4   5
ENDBRANCH   1   4
BRANCH   1  26
ATOM     26  C   UNL     1     -47.745  32.705  25.225  1.00  0.00     0.097 C 
ATOM     27  C   UNL     1     -48.834  31.898  25.917  1.00  0.00     0.007 C 
ATOM     28  O   UNL     1     -47.447  32.029  23.983  1.00  0.00    -0.348 OA
ATOM     29  H   UNL     1     -48.132  33.692  24.943  1.00  0.00     0.064 H 
ATOM     30  C   UNL     1     -49.590  31.317  24.745  1.00  0.00     0.102 C 
ATOM     31  H   UNL     1     -49.445  32.529  26.570  1.00  0.00     0.032 H 
ATOM     32  H   UNL     1     -48.416  31.083  26.517  1.00  0.00     0.032 H 
ATOM     33  C   UNL     1     -48.468  31.026  23.738  1.00  0.00     0.161 C 
ATOM     34  H   UNL     1     -50.184  30.444  25.029  1.00  0.00     0.065 H 
ATOM     35  H   UNL     1     -48.798  31.145  22.700  1.00  0.00     0.088 H 
BRANCH  30  36
ATOM     36  O   UNL     1     -50.507  32.311  24.261  1.00  0.00    -0.388 OA
ATOM     37  H   UNL     1     -50.078  33.184  24.315  1.00  0.00     0.211 HD
ENDBRANCH  30  36
BRANCH  33  38
ATOM     38  N   UNL     1     -47.890  29.690  23.845  1.00  0.00    -0.303 N 
ATOM     39  C   UNL     1     -48.379  28.623  24.547  1.00  0.00     0.013 A 
ATOM     40  C   UNL     1     -46.693  29.337  23.276  1.00  0.00     0.147 A 
ATOM     41  C   UNL     1     -47.519  27.544  24.406  1.00  0.00    -0.014 A 
ATOM     42  H   UNL     1     -49.302  28.704  25.108  1.00  0.00     0.082 H 
ATOM     43  C   UNL     1     -46.427  28.003  23.581  1.00  0.00     0.065 A 
ATOM     44  N   UNL     1     -45.929  30.169  22.547  1.00  0.00    -0.218 NA
ATOM     45  C   UNL     1     -45.227  27.491  23.050  1.00  0.00     0.136 A 
ATOM     46  C   UNL     1     -44.819  29.566  22.106  1.00  0.00     0.120 A 
ATOM     47  N   UNL     1     -44.437  28.294  22.307  1.00  0.00    -0.219 NA
ATOM     48  H   UNL     1     -44.147  30.176  21.511  1.00  0.00     0.106 H 
BRANCH  41  49
ATOM     49  C   UNL     1     -47.771  26.213  25.054  1.00  0.00    -0.014 C 
ATOM     50  C   UNL     1     -49.187  25.995  25.608  1.00  0.00    -0.046 C 
ATOM     51  C   UNL     1     -46.813  25.863  26.193  1.00  0.00    -0.046 C 
ATOM     52  H   UNL     1     -47.627  25.442  24.280  1.00  0.00     0.035 H 
ATOM     53  C   UNL     1     -49.010  25.307  26.962  1.00  0.00    -0.053 C 
ATOM     54  H   UNL     1     -49.749  25.343  24.928  1.00  0.00     0.027 H 
ATOM     55  H   UNL     1     -49.775  26.912  25.708  1.00  0.00     0.027 H 
ATOM     56  C   UNL     1     -47.575  24.803  26.974  1.00  0.00    -0.053 C 
ATOM     57  H   UNL     1     -46.590  26.724  26.831  1.00  0.00     0.027 H 
ATOM     58  H   UNL     1     -45.857  25.481  25.823  1.00  0.00     0.027 H 
ATOM     59  H   UNL     1     -49.159  26.029  27.771  1.00  0.00     0.027 H 
ATOM     60  H   UNL     1     -49.731  24.497  27.108  1.00  0.00     0.027 H 
ATOM     61  H   UNL     1     -47.513  23.838  26.457  1.00  0.00     0.027 H 
ATOM     62  H   UNL     1     -47.187  24.673  27.987  1.00  0.00     0.027 H 
ENDBRANCH  41  49
BRANCH  45  63
ATOM     63  N   UNL     1     -44.768  26.192  23.208  1.00  0.00    -0.383 N 
ATOM     64  H   UNL     1     -45.307  25.721  23.926  1.00  0.00     0.158 HD
ATOM     65  H   UNL     1     -43.768  26.106  23.282  1.00  0.00     0.158 HD
ENDBRANCH  45  63
ENDBRANCH  33  38
ENDBRANCH   1  26
TORSDOF 9
ENDMDL
MODEL 3
REMARK VINA RESULT:      -9.2      3.759     11.785
REMARK SMILES CNc1ccc2ccc(OC[C@@H]3C[C@@H](O)[C@H](n4cc(C5CCCC5)c5c(N)ncnc54)O3)cc2n1
REMARK SMILES IDX 11 1 10 4 9 5 3 6 4 7 35 8 5 9 34 11 6 12 33 14 7 15 8 17
REMARK SMILES IDX 2 20 1 22 12 26 13 27 32 28 14 30 16 33 15 36 17 38 18 39
REMARK SMILES IDX 31 40 19 41 25 43 30 44 26 45 29 46 28 47 20 49 21 50 24 51
REMARK SMILES IDX 22 53 23 56 27 63
REMARK H PARENT 11 2 11 3 4 10 5 13 33 16 7 18 8 19 2 21 1 23 1 24 1 25 12 29
REMARK H PARENT 13 31 13 32 14 34 16 35 15 37 18 42 29 48 20 52 21 54 21 55
REMARK H PARENT 24 57 24 58 22 59 22 60 23 61 23 62 27 64 27 65
REMARK Flexibility Score: inf
ROOT
ATOM      1  C   UNL     1     -49.265  32.443  26.121  1.00  0.00     0.115 C 
ATOM      2  H   UNL     1     -48.221  32.231  26.379  1.00  0.00     0.073 H 
ATOM      3  H   UNL     1     -49.929  31.696  26.573  1.00  0.00     0.073 H 
ENDROOT
BRANCH   1   4
ATOM      4  O   UNL     1     -49.610  33.747  26.594  1.00  0.00    -0.491 OA
BRANCH   4   5
ATOM      5  C   UNL     1     -48.611  34.667  26.724  1.00  0.00     0.121 A 
ATOM      6  C   UNL     1     -47.692  39.048  28.359  1.00  0.00     0.126 A 
ATOM      7  C   UNL     1     -46.355  38.951  27.991  1.00  0.00    -0.019 A 
ATOM      8  N   UNL     1     -48.554  38.032  28.154  1.00  0.00    -0.231 NA
ATOM      9  C   UNL     1     -45.896  37.791  27.374  1.00  0.00    -0.049 A 
ATOM     10  H   UNL     1     -45.668  39.768  28.192  1.00  0.00     0.066 H 
ATOM     11  C   UNL     1     -48.118  36.907  27.559  1.00  0.00     0.076 A 
ATOM     12  C   UNL     1     -46.785  36.739  27.143  1.00  0.00     0.001 A 
ATOM     13  H   UNL     1     -44.851  37.717  27.085  1.00  0.00     0.063 H 
ATOM     14  C   UNL     1     -49.004  35.862  27.337  1.00  0.00     0.007 A 
ATOM     15  C   UNL     1     -46.379  35.546  26.521  1.00  0.00    -0.049 A 
ATOM     16  H   UNL     1     -50.037  35.979  27.656  1.00  0.00     0.069 H 
ATOM     17  C   UNL     1     -47.293  34.511  26.311  1.00  0.00    -0.019 A 
ATOM     18  H   UNL     1     -45.348  35.416  26.199  1.00  0.00     0.063 H 
ATOM     19  H   UNL     1     -46.944  33.606  25.826  1.00  0.00     0.066 H 
BRANCH   6  20
ATOM     20  N   UNL     1     -48.113  40.228  28.999  1.00  0.00    -0.373 N 
ATOM     21  H   UNL     1     -47.475  40.979  28.754  1.00  0.00     0.161 HD
BRANCH  20  22
ATOM     22  C   UNL     1     -49.496  40.587  28.730  1.00  0.00     0.005 C 
ATOM     23  H   UNL     1     -49.589  40.880  27.679  1.00  0.00     0.045 H 
ATOM     24  H   UNL     1     -49.814  41.443  29.335  1.00  0.00     0.045 H 
ATOM     25  H   UNL     1     -50.174  39.743  28.900  1.00  0.00     0.045 H 
ENDBRANCH  20  22
ENDBRANCH   6  20
ENDBRANCH   4   5
ENDBRANCH   1   4
BRANCH   1  26
ATOM     26  C   UNL     1     -49.430  32.392  24.598  1.00  0.00     0.097 C 
ATOM     27  C   UNL     1     -50.530  31.465  24.102  1.00  0.00     0.007 C 
ATOM     28  O   UNL     1     -48.203  31.963  23.965  1.00  0.00    -0.348 OA
ATOM     29  H   UNL     1     -49.610  33.413  24.238  1.00  0.00     0.064 H 
ATOM     30  C   UNL     1     -50.045  31.112  22.715  1.00  0.00     0.102 C 
ATOM     31  H   UNL     1     -51.506  31.960  24.117  1.00  0.00     0.032 H 
ATOM     32  H   UNL     1     -50.596  30.553  24.705  1.00  0.00     0.032 H 
ATOM     33  C   UNL     1     -48.525  31.020  22.909  1.00  0.00     0.161 C 
ATOM     34  H   UNL     1     -50.511  30.199  22.335  1.00  0.00     0.065 H 
ATOM     35  H   UNL     1     -47.971  31.331  22.016  1.00  0.00     0.088 H 
BRANCH  30  36
ATOM     36  O   UNL     1     -50.413  32.176  21.823  1.00  0.00    -0.388 OA
ATOM     37  H   UNL     1     -51.384  32.209  21.759  1.00  0.00     0.211 HD
ENDBRANCH  30  36
BRANCH  33  38
ATOM     38  N   UNL     1     -48.039  29.690  23.263  1.00  0.00    -0.303 N 
ATOM     39  C   UNL     1     -48.703  28.717  23.959  1.00  0.00     0.013 A 
ATOM     40  C   UNL     1     -46.771  29.249  22.982  1.00  0.00     0.147 A 
ATOM     41  C   UNL     1     -47.881  27.609  24.101  1.00  0.00    -0.014 A 
ATOM     42  H   UNL     1     -49.713  28.880  24.314  1.00  0.00     0.082 H 
ATOM     43  C   UNL     1     -46.630  27.950  23.467  1.00  0.00     0.065 A 
ATOM     44  N   UNL     1     -45.844  29.978  22.338  1.00  0.00    -0.218 NA
ATOM     45  C   UNL     1     -45.374  27.355  23.239  1.00  0.00     0.136 A 
ATOM     46  C   UNL     1     -44.697  29.305  22.190  1.00  0.00     0.120 A 
ATOM     47  N   UNL     1     -44.419  28.053  22.590  1.00  0.00    -0.219 NA
ATOM     48  H   UNL     1     -43.895  29.830  21.681  1.00  0.00     0.106 H 
BRANCH  41  49
ATOM     49  C   UNL     1     -48.314  26.363  24.818  1.00  0.00    -0.014 C 
ATOM     50  C   UNL     1     -49.821  26.230  25.082  1.00  0.00    -0.046 C 
ATOM     51  C   UNL     1     -47.627  26.125  26.163  1.00  0.00    -0.046 C 
ATOM     52  H   UNL     1     -48.044  25.509  24.176  1.00  0.00     0.035 H 
ATOM     53  C   UNL     1     -49.955  25.694  26.507  1.00  0.00    -0.053 C 
ATOM     54  H   UNL     1     -50.256  25.516  24.372  1.00  0.00     0.027 H 
ATOM     55  H   UNL     1     -50.380  27.163  24.960  1.00  0.00     0.027 H 
ATOM     56  C   UNL     1     -48.575  25.170  26.873  1.00  0.00    -0.053 C 
ATOM     57  H   UNL     1     -47.506  27.047  26.739  1.00  0.00     0.027 H 
ATOM     58  H   UNL     1     -46.631  25.688  26.043  1.00  0.00     0.027 H 
ATOM     59  H   UNL     1     -50.240  26.504  27.188  1.00  0.00     0.027 H 
ATOM     60  H   UNL     1     -50.722  24.917  26.583  1.00  0.00     0.027 H 
ATOM     61  H   UNL     1     -48.445  24.153  26.485  1.00  0.00     0.027 H 
ATOM     62  H   UNL     1     -48.410  25.147  27.953  1.00  0.00     0.027 H 
ENDBRANCH  41  49
BRANCH  45  63
ATOM     63  N   UNL     1     -45.013  26.070  23.616  1.00  0.00    -0.383 N 
ATOM     64  H   UNL     1     -45.835  25.478  23.654  1.00  0.00     0.158 HD
ATOM     65  H   UNL     1     -44.400  26.023  24.413  1.00  0.00     0.158 HD
ENDBRANCH  45  63
ENDBRANCH  33  38
ENDBRANCH   1  26
TORSDOF 9
ENDMDL
MODEL 4
REMARK VINA RESULT:      -9.2      2.233      3.458
REMARK SMILES CNc1ccc2ccc(OC[C@@H]3C[C@@H](O)[C@H](n4cc(C5CCCC5)c5c(N)ncnc54)O3)cc2n1
REMARK SMILES IDX 11 1 10 4 9 5 3 6 4 7 35 8 5 9 34 11 6 12 33 14 7 15 8 17
REMARK SMILES IDX 2 20 1 22 12 26 13 27 32 28 14 30 16 33 15 36 17 38 18 39
REMARK SMILES IDX 31 40 19 41 25 43 30 44 26 45 29 46 28 47 20 49 21 50 24 51
REMARK SMILES IDX 22 53 23 56 27 63
REMARK H PARENT 11 2 11 3 4 10 5 13 33 16 7 18 8 19 2 21 1 23 1 24 1 25 12 29
REMARK H PARENT 13 31 13 32 14 34 16 35 15 37 18 42 29 48 20 52 21 54 21 55
REMARK H PARENT 24 57 24 58 22 59 22 60 23 61 23 62 27 64 27 65
REMARK Flexibility Score: inf
ROOT
ATOM      1  C   UNL     1     -46.230  34.578  27.109  1.00  0.00     0.115 C 
ATOM      2  H   UNL     1     -45.259  34.887  27.514  1.00  0.00     0.073 H 
ATOM      3  H   UNL     1     -46.310  34.859  26.052  1.00  0.00     0.073 H 
ENDROOT
BRANCH   1   4
ATOM      4  O   UNL     1     -46.365  33.161  27.244  1.00  0.00    -0.491 OA
BRANCH   4   5
ATOM      5  C   UNL     1     -47.025  32.484  26.261  1.00  0.00     0.121 A 
ATOM      6  C   UNL     1     -46.617  31.022  21.744  1.00  0.00     0.126 A 
ATOM      7  C   UNL     1     -47.864  30.410  21.784  1.00  0.00    -0.019 A 
ATOM      8  N   UNL     1     -46.108  31.657  22.819  1.00  0.00    -0.231 NA
ATOM      9  C   UNL     1     -48.621  30.474  22.950  1.00  0.00    -0.049 A 
ATOM     10  H   UNL     1     -48.243  29.877  20.918  1.00  0.00     0.066 H 
ATOM     11  C   UNL     1     -46.834  31.722  23.950  1.00  0.00     0.076 A 
ATOM     12  C   UNL     1     -48.111  31.143  24.064  1.00  0.00     0.001 A 
ATOM     13  H   UNL     1     -49.597  29.996  22.980  1.00  0.00     0.063 H 
ATOM     14  C   UNL     1     -46.320  32.383  25.057  1.00  0.00     0.007 A 
ATOM     15  C   UNL     1     -48.832  31.243  25.267  1.00  0.00    -0.049 A 
ATOM     16  H   UNL     1     -45.333  32.834  24.981  1.00  0.00     0.069 H 
ATOM     17  C   UNL     1     -48.289  31.914  26.363  1.00  0.00    -0.019 A 
ATOM     18  H   UNL     1     -49.820  30.795  25.355  1.00  0.00     0.063 H 
ATOM     19  H   UNL     1     -48.875  31.972  27.274  1.00  0.00     0.066 H 
BRANCH   6  20
ATOM     20  N   UNL     1     -45.872  30.918  20.555  1.00  0.00    -0.373 N 
ATOM     21  H   UNL     1     -46.030  30.001  20.148  1.00  0.00     0.161 HD
BRANCH  20  22
ATOM     22  C   UNL     1     -46.131  31.982  19.598  1.00  0.00     0.005 C 
ATOM     23  H   UNL     1     -45.300  32.695  19.626  1.00  0.00     0.045 H 
ATOM     24  H   UNL     1     -47.043  32.534  19.847  1.00  0.00     0.045 H 
ATOM     25  H   UNL     1     -46.202  31.597  18.574  1.00  0.00     0.045 H 
ENDBRANCH  20  22
ENDBRANCH   6  20
ENDBRANCH   4   5
ENDBRANCH   1   4
BRANCH   1  26
ATOM     26  C   UNL     1     -47.349  35.275  27.891  1.00  0.00     0.097 C 
ATOM     27  C   UNL     1     -48.369  36.012  27.034  1.00  0.00     0.007 C 
ATOM     28  O   UNL     1     -46.802  36.241  28.816  1.00  0.00    -0.348 OA
ATOM     29  H   UNL     1     -47.854  34.523  28.510  1.00  0.00     0.064 H 
ATOM     30  C   UNL     1     -48.877  37.069  27.986  1.00  0.00     0.102 C 
ATOM     31  H   UNL     1     -49.147  35.334  26.667  1.00  0.00     0.032 H 
ATOM     32  H   UNL     1     -47.899  36.497  26.172  1.00  0.00     0.032 H 
ATOM     33  C   UNL     1     -47.612  37.446  28.770  1.00  0.00     0.161 C 
ATOM     34  H   UNL     1     -49.352  37.902  27.462  1.00  0.00     0.065 H 
ATOM     35  H   UNL     1     -47.832  37.728  29.806  1.00  0.00     0.088 H 
BRANCH  30  36
ATOM     36  O   UNL     1     -49.878  36.475  28.828  1.00  0.00    -0.388 OA
ATOM     37  H   UNL     1     -50.242  35.693  28.377  1.00  0.00     0.211 HD
ENDBRANCH  30  36
BRANCH  33  38
ATOM     38  N   UNL     1     -46.843  38.541  28.188  1.00  0.00    -0.303 N 
ATOM     39  C   UNL     1     -45.482  38.676  28.149  1.00  0.00     0.013 A 
ATOM     40  C   UNL     1     -47.417  39.657  27.635  1.00  0.00     0.147 A 
ATOM     41  C   UNL     1     -45.156  39.872  27.526  1.00  0.00    -0.014 A 
ATOM     42  H   UNL     1     -44.837  37.917  28.573  1.00  0.00     0.082 H 
ATOM     43  C   UNL     1     -46.407  40.508  27.190  1.00  0.00     0.065 A 
ATOM     44  N   UNL     1     -48.743  39.861  27.551  1.00  0.00    -0.218 NA
ATOM     45  C   UNL     1     -46.847  41.700  26.583  1.00  0.00     0.136 A 
ATOM     46  C   UNL     1     -49.030  41.027  26.961  1.00  0.00     0.120 A 
ATOM     47  N   UNL     1     -48.171  41.937  26.473  1.00  0.00    -0.219 NA
ATOM     48  H   UNL     1     -50.084  41.266  26.859  1.00  0.00     0.106 H 
BRANCH  41  49
ATOM     49  C   UNL     1     -43.737  40.320  27.320  1.00  0.00    -0.014 C 
ATOM     50  C   UNL     1     -43.043  40.933  28.545  1.00  0.00    -0.046 C 
ATOM     51  C   UNL     1     -43.538  41.317  26.179  1.00  0.00    -0.046 C 
ATOM     52  H   UNL     1     -43.149  39.426  27.056  1.00  0.00     0.035 H 
ATOM     53  C   UNL     1     -42.267  42.145  28.029  1.00  0.00    -0.053 C 
ATOM     54  H   UNL     1     -42.348  40.201  28.977  1.00  0.00     0.027 H 
ATOM     55  H   UNL     1     -43.726  41.218  29.350  1.00  0.00     0.027 H 
ATOM     56  C   UNL     1     -42.209  41.974  26.519  1.00  0.00    -0.053 C 
ATOM     57  H   UNL     1     -44.336  42.064  26.133  1.00  0.00     0.027 H 
ATOM     58  H   UNL     1     -43.505  40.823  25.203  1.00  0.00     0.027 H 
ATOM     59  H   UNL     1     -42.803  43.067  28.281  1.00  0.00     0.027 H 
ATOM     60  H   UNL     1     -41.269  42.213  28.473  1.00  0.00     0.027 H 
ATOM     61  H   UNL     1     -41.380  41.309  26.249  1.00  0.00     0.027 H 
ATOM     62  H   UNL     1     -42.068  42.924  25.997  1.00  0.00     0.027 H 
ENDBRANCH  41  49
BRANCH  45  63
ATOM     63  N   UNL     1     -46.024  42.684  26.053  1.00  0.00    -0.383 N 
ATOM     64  H   UNL     1     -45.067  42.353  26.024  1.00  0.00     0.158 HD
ATOM     65  H   UNL     1     -46.162  43.601  26.444  1.00  0.00     0.158 HD
ENDBRANCH  45  63
ENDBRANCH  33  38
ENDBRANCH   1  26
TORSDOF 9
ENDMDL
MODEL 5
REMARK VINA RESULT:      -9.1      1.704      2.347
REMARK SMILES CNc1ccc2ccc(OC[C@@H]3C[C@@H](O)[C@H](n4cc(C5CCCC5)c5c(N)ncnc54)O3)cc2n1
REMARK SMILES IDX 11 1 10 4 9 5 3 6 4 7 35 8 5 9 34 11 6 12 33 14 7 15 8 17
REMARK SMILES IDX 2 20 1 22 12 26 13 27 32 28 14 30 16 33 15 36 17 38 18 39
REMARK SMILES IDX 31 40 19 41 25 43 30 44 26 45 29 46 28 47 20 49 21 50 24 51
REMARK SMILES IDX 22 53 23 56 27 63
REMARK H PARENT 11 2 11 3 4 10 5 13 33 16 7 18 8 19 2 21 1 23 1 24 1 25 12 29
REMARK H PARENT 13 31 13 32 14 34 16 35 15 37 18 42 29 48 20 52 21 54 21 55
REMARK H PARENT 24 57 24 58 22 59 22 60 23 61 23 62 27 64 27 65
REMARK Flexibility Score: inf
ROOT
ATOM      1  C   UNL     1     -46.199  34.436  26.769  1.00  0.00     0.115 C 
ATOM      2  H   UNL     1     -45.205  34.806  27.046  1.00  0.00     0.073 H 
ATOM      3  H   UNL     1     -46.414  34.669  25.719  1.00  0.00     0.073 H 
ENDROOT
BRANCH   1   4
ATOM      4  O   UNL     1     -46.246  33.022  26.970  1.00  0.00    -0.491 OA
BRANCH   4   5
ATOM      5  C   UNL     1     -47.016  32.279  26.124  1.00  0.00     0.121 A 
ATOM      6  C   UNL     1     -47.404  30.915  21.574  1.00  0.00     0.126 A 
ATOM      7  C   UNL     1     -48.537  30.159  21.852  1.00  0.00    -0.019 A 
ATOM      8  N   UNL     1     -46.757  31.596  22.540  1.00  0.00    -0.231 NA
ATOM      9  C   UNL     1     -49.034  30.123  23.151  1.00  0.00    -0.049 A 
ATOM     10  H   UNL     1     -49.027  29.592  21.067  1.00  0.00     0.066 H 
ATOM     11  C   UNL     1     -47.231  31.565  23.799  1.00  0.00     0.076 A 
ATOM     12  C   UNL     1     -48.380  30.838  24.157  1.00  0.00     0.001 A 
ATOM     13  H   UNL     1     -49.921  29.533  23.368  1.00  0.00     0.063 H 
ATOM     14  C   UNL     1     -46.574  32.273  24.796  1.00  0.00     0.007 A 
ATOM     15  C   UNL     1     -48.838  30.841  25.486  1.00  0.00    -0.049 A 
ATOM     16  H   UNL     1     -45.683  32.838  24.532  1.00  0.00     0.069 H 
ATOM     17  C   UNL     1     -48.156  31.562  26.467  1.00  0.00    -0.019 A 
ATOM     18  H   UNL     1     -49.728  30.279  25.763  1.00  0.00     0.063 H 
ATOM     19  H   UNL     1     -48.541  31.543  27.482  1.00  0.00     0.066 H 
BRANCH   6  20
ATOM     20  N   UNL     1     -46.920  30.910  20.253  1.00  0.00    -0.373 N 
ATOM     21  H   UNL     1     -47.708  30.961  19.615  1.00  0.00     0.161 HD
BRANCH  20  22
ATOM     22  C   UNL     1     -45.937  31.946  19.977  1.00  0.00     0.005 C 
ATOM     23  H   UNL     1     -45.302  32.076  20.860  1.00  0.00     0.045 H 
ATOM     24  H   UNL     1     -46.415  32.910  19.775  1.00  0.00     0.045 H 
ATOM     25  H   UNL     1     -45.286  31.674  19.139  1.00  0.00     0.045 H 
ENDBRANCH  20  22
ENDBRANCH   6  20
ENDBRANCH   4   5
ENDBRANCH   1   4
BRANCH   1  26
ATOM     26  C   UNL     1     -47.256  35.112  27.650  1.00  0.00     0.097 C 
ATOM     27  C   UNL     1     -48.234  36.010  26.905  1.00  0.00     0.007 C 
ATOM     28  O   UNL     1     -46.629  35.926  28.666  1.00  0.00    -0.348 OA
ATOM     29  H   UNL     1     -47.803  34.330  28.190  1.00  0.00     0.064 H 
ATOM     30  C   UNL     1     -48.653  36.983  27.982  1.00  0.00     0.102 C 
ATOM     31  H   UNL     1     -49.062  35.434  26.481  1.00  0.00     0.032 H 
ATOM     32  H   UNL     1     -47.743  36.559  26.094  1.00  0.00     0.032 H 
ATOM     33  C   UNL     1     -47.353  37.181  28.775  1.00  0.00     0.161 C 
ATOM     34  H   UNL     1     -49.076  37.901  27.567  1.00  0.00     0.065 H 
ATOM     35  H   UNL     1     -47.538  37.357  29.841  1.00  0.00     0.088 H 
BRANCH  30  36
ATOM     36  O   UNL     1     -49.681  36.365  28.773  1.00  0.00    -0.388 OA
ATOM     37  H   UNL     1     -49.292  36.072  29.617  1.00  0.00     0.211 HD
ENDBRANCH  30  36
BRANCH  33  38
ATOM     38  N   UNL     1     -46.518  38.281  28.305  1.00  0.00    -0.303 N 
ATOM     39  C   UNL     1     -46.700  39.048  27.187  1.00  0.00     0.013 A 
ATOM     40  C   UNL     1     -45.355  38.665  28.923  1.00  0.00     0.147 A 
ATOM     41  C   UNL     1     -45.671  39.973  27.090  1.00  0.00    -0.014 A 
ATOM     42  H   UNL     1     -47.544  38.879  26.530  1.00  0.00     0.082 H 
ATOM     43  C   UNL     1     -44.801  39.729  28.214  1.00  0.00     0.065 A 
ATOM     44  N   UNL     1     -44.864  38.087  30.033  1.00  0.00    -0.218 NA
ATOM     45  C   UNL     1     -43.599  40.242  28.741  1.00  0.00     0.136 A 
ATOM     46  C   UNL     1     -43.721  38.661  30.427  1.00  0.00     0.120 A 
ATOM     47  N   UNL     1     -43.078  39.693  29.858  1.00  0.00    -0.219 NA
ATOM     48  H   UNL     1     -43.259  38.245  31.317  1.00  0.00     0.106 H 
BRANCH  41  49
ATOM     49  C   UNL     1     -45.578  40.970  25.970  1.00  0.00    -0.014 C 
ATOM     50  C   UNL     1     -44.185  41.158  25.354  1.00  0.00    -0.046 C 
ATOM     51  C   UNL     1     -46.080  42.372  26.317  1.00  0.00    -0.046 C 
ATOM     52  H   UNL     1     -46.222  40.603  25.155  1.00  0.00     0.035 H 
ATOM     53  C   UNL     1     -44.014  42.663  25.146  1.00  0.00    -0.053 C 
ATOM     54  H   UNL     1     -44.139  40.640  24.388  1.00  0.00     0.027 H 
ATOM     55  H   UNL     1     -43.369  40.752  25.959  1.00  0.00     0.027 H 
ATOM     56  C   UNL     1     -45.413  43.249  25.269  1.00  0.00    -0.053 C 
ATOM     57  H   UNL     1     -45.786  42.684  27.324  1.00  0.00     0.027 H 
ATOM     58  H   UNL     1     -47.171  42.442  26.266  1.00  0.00     0.027 H 
ATOM     59  H   UNL     1     -43.366  43.078  25.925  1.00  0.00     0.027 H 
ATOM     60  H   UNL     1     -43.556  42.895  24.180  1.00  0.00     0.027 H 
ATOM     61  H   UNL     1     -45.941  43.160  24.312  1.00  0.00     0.027 H 
ATOM     62  H   UNL     1     -45.400  44.303  25.555  1.00  0.00     0.027 H 
ENDBRANCH  41  49
BRANCH  45  63
ATOM     63  N   UNL     1     -42.880  41.306  28.215  1.00  0.00    -0.383 N 
ATOM     64  H   UNL     1     -42.805  41.207  27.209  1.00  0.00     0.158 HD
ATOM     65  H   UNL     1     -42.024  41.516  28.701  1.00  0.00     0.158 HD
ENDBRANCH  45  63
ENDBRANCH  33  38
ENDBRANCH   1  26
TORSDOF 9
ENDMDL
MODEL 6
REMARK VINA RESULT:      -8.9      1.982      2.876
REMARK SMILES CNc1ccc2ccc(OC[C@@H]3C[C@@H](O)[C@H](n4cc(C5CCCC5)c5c(N)ncnc54)O3)cc2n1
REMARK SMILES IDX 11 1 10 4 9 5 3 6 4 7 35 8 5 9 34 11 6 12 33 14 7 15 8 17
REMARK SMILES IDX 2 20 1 22 12 26 13 27 32 28 14 30 16 33 15 36 17 38 18 39
REMARK SMILES IDX 31 40 19 41 25 43 30 44 26 45 29 46 28 47 20 49 21 50 24 51
REMARK SMILES IDX 22 53 23 56 27 63
REMARK H PARENT 11 2 11 3 4 10 5 13 33 16 7 18 8 19 2 21 1 23 1 24 1 25 12 29
REMARK H PARENT 13 31 13 32 14 34 16 35 15 37 18 42 29 48 20 52 21 54 21 55
REMARK H PARENT 24 57 24 58 22 59 22 60 23 61 23 62 27 64 27 65
REMARK Flexibility Score: inf
ROOT
ATOM      1  C   UNL     1     -46.146  34.426  26.501  1.00  0.00     0.115 C 
ATOM      2  H   UNL     1     -45.771  33.470  26.884  1.00  0.00     0.073 H 
ATOM      3  H   UNL     1     -45.316  35.125  26.341  1.00  0.00     0.073 H 
ENDROOT
BRANCH   1   4
ATOM      4  O   UNL     1     -46.833  34.200  25.267  1.00  0.00    -0.491 OA
BRANCH   4   5
ATOM      5  C   UNL     1     -46.806  32.942  24.740  1.00  0.00     0.121 A 
ATOM      6  C   UNL     1     -48.893  28.668  25.040  1.00  0.00     0.126 A 
ATOM      7  C   UNL     1     -48.089  28.157  24.029  1.00  0.00    -0.019 A 
ATOM      8  N   UNL     1     -48.787  29.950  25.445  1.00  0.00    -0.231 NA
ATOM      9  C   UNL     1     -47.132  28.974  23.435  1.00  0.00    -0.049 A 
ATOM     10  H   UNL     1     -48.210  27.131  23.695  1.00  0.00     0.066 H 
ATOM     11  C   UNL     1     -47.864  30.747  24.875  1.00  0.00     0.076 A 
ATOM     12  C   UNL     1     -47.003  30.299  23.857  1.00  0.00     0.001 A 
ATOM     13  H   UNL     1     -46.503  28.573  22.645  1.00  0.00     0.063 H 
ATOM     14  C   UNL     1     -47.744  32.064  25.295  1.00  0.00     0.007 A 
ATOM     15  C   UNL     1     -46.052  31.169  23.297  1.00  0.00    -0.049 A 
ATOM     16  H   UNL     1     -48.406  32.422  26.079  1.00  0.00     0.069 H 
ATOM     17  C   UNL     1     -45.954  32.490  23.739  1.00  0.00    -0.019 A 
ATOM     18  H   UNL     1     -45.385  30.823  22.510  1.00  0.00     0.063 H 
ATOM     19  H   UNL     1     -45.207  33.131  23.284  1.00  0.00     0.066 H 
BRANCH   6  20
ATOM     20  N   UNL     1     -49.863  27.817  25.602  1.00  0.00    -0.373 N 
ATOM     21  H   UNL     1     -50.465  27.473  24.861  1.00  0.00     0.161 HD
BRANCH  20  22
ATOM     22  C   UNL     1     -49.310  26.730  26.395  1.00  0.00     0.005 C 
ATOM     23  H   UNL     1     -49.873  26.652  27.331  1.00  0.00     0.045 H 
ATOM     24  H   UNL     1     -48.264  26.916  26.658  1.00  0.00     0.045 H 
ATOM     25  H   UNL     1     -49.395  25.768  25.877  1.00  0.00     0.045 H 
ENDBRANCH  20  22
ENDBRANCH   6  20
ENDBRANCH   4   5
ENDBRANCH   1   4
BRANCH   1  26
ATOM     26  C   UNL     1     -47.115  35.035  27.521  1.00  0.00     0.097 C 
ATOM     27  C   UNL     1     -48.159  35.974  26.934  1.00  0.00     0.007 C 
ATOM     28  O   UNL     1     -46.394  35.784  28.525  1.00  0.00    -0.348 OA
ATOM     29  H   UNL     1     -47.608  34.215  28.057  1.00  0.00     0.064 H 
ATOM     30  C   UNL     1     -48.475  36.870  28.108  1.00  0.00     0.102 C 
ATOM     31  H   UNL     1     -49.024  35.421  26.553  1.00  0.00     0.032 H 
ATOM     32  H   UNL     1     -47.749  36.578  26.118  1.00  0.00     0.032 H 
ATOM     33  C   UNL     1     -47.106  37.023  28.786  1.00  0.00     0.161 C 
ATOM     34  H   UNL     1     -48.936  37.811  27.797  1.00  0.00     0.065 H 
ATOM     35  H   UNL     1     -47.189  37.127  29.874  1.00  0.00     0.088 H 
BRANCH  30  36
ATOM     36  O   UNL     1     -49.423  36.194  28.950  1.00  0.00    -0.388 OA
ATOM     37  H   UNL     1     -50.213  36.755  29.044  1.00  0.00     0.211 HD
ENDBRANCH  30  36
BRANCH  33  38
ATOM     38  N   UNL     1     -46.320  38.158  28.313  1.00  0.00    -0.303 N 
ATOM     39  C   UNL     1     -46.522  38.900  27.182  1.00  0.00     0.013 A 
ATOM     40  C   UNL     1     -45.188  38.608  28.944  1.00  0.00     0.147 A 
ATOM     41  C   UNL     1     -45.539  39.874  27.087  1.00  0.00    -0.014 A 
ATOM     42  H   UNL     1     -47.346  38.680  26.514  1.00  0.00     0.082 H 
ATOM     43  C   UNL     1     -44.676  39.689  28.228  1.00  0.00     0.065 A 
ATOM     44  N   UNL     1     -44.687  38.071  30.069  1.00  0.00    -0.218 NA
ATOM     45  C   UNL     1     -43.510  40.270  28.767  1.00  0.00     0.136 A 
ATOM     46  C   UNL     1     -43.580  38.707  30.473  1.00  0.00     0.120 A 
ATOM     47  N   UNL     1     -42.981  39.763  29.899  1.00  0.00    -0.219 NA
ATOM     48  H   UNL     1     -43.112  38.328  31.376  1.00  0.00     0.106 H 
BRANCH  41  49
ATOM     49  C   UNL     1     -45.478  40.859  25.955  1.00  0.00    -0.014 C 
ATOM     50  C   UNL     1     -44.112  41.014  25.273  1.00  0.00    -0.046 C 
ATOM     51  C   UNL     1     -45.935  42.274  26.311  1.00  0.00    -0.046 C 
ATOM     52  H   UNL     1     -46.167  40.499  25.174  1.00  0.00     0.035 H 
ATOM     53  C   UNL     1     -43.921  42.513  25.044  1.00  0.00    -0.053 C 
ATOM     54  H   UNL     1     -44.120  40.487  24.311  1.00  0.00     0.027 H 
ATOM     55  H   UNL     1     -43.277  40.596  25.844  1.00  0.00     0.027 H 
ATOM     56  C   UNL     1     -45.300  43.128  25.225  1.00  0.00    -0.053 C 
ATOM     57  H   UNL     1     -45.589  42.589  27.300  1.00  0.00     0.027 H 
ATOM     58  H   UNL     1     -47.025  42.366  26.309  1.00  0.00     0.027 H 
ATOM     59  H   UNL     1     -43.229  42.922  25.788  1.00  0.00     0.027 H 
ATOM     60  H   UNL     1     -43.503  42.727  24.055  1.00  0.00     0.027 H 
ATOM     61  H   UNL     1     -45.873  43.042  24.294  1.00  0.00     0.027 H 
ATOM     62  H   UNL     1     -45.253  44.185  25.500  1.00  0.00     0.027 H 
ENDBRANCH  41  49
BRANCH  45  63
ATOM     63  N   UNL     1     -42.838  41.361  28.236  1.00  0.00    -0.383 N 
ATOM     64  H   UNL     1     -43.446  41.867  27.603  1.00  0.00     0.158 HD
ATOM     65  H   UNL     1     -41.915  41.157  27.890  1.00  0.00     0.158 HD
ENDBRANCH  45  63
ENDBRANCH  33  38
ENDBRANCH   1  26
TORSDOF 9
ENDMDL
MODEL 7
REMARK VINA RESULT:      -8.9      2.844      4.621
REMARK SMILES CNc1ccc2ccc(OC[C@@H]3C[C@@H](O)[C@H](n4cc(C5CCCC5)c5c(N)ncnc54)O3)cc2n1
REMARK SMILES IDX 11 1 10 4 9 5 3 6 4 7 35 8 5 9 34 11 6 12 33 14 7 15 8 17
REMARK SMILES IDX 2 20 1 22 12 26 13 27 32 28 14 30 16 33 15 36 17 38 18 39
REMARK SMILES IDX 31 40 19 41 25 43 30 44 26 45 29 46 28 47 20 49 21 50 24 51
REMARK SMILES IDX 22 53 23 56 27 63
REMARK H PARENT 11 2 11 3 4 10 5 13 33 16 7 18 8 19 2 21 1 23 1 24 1 25 12 29
REMARK H PARENT 13 31 13 32 14 34 16 35 15 37 18 42 29 48 20 52 21 54 21 55
REMARK H PARENT 24 57 24 58 22 59 22 60 23 61 23 62 27 64 27 65
REMARK Flexibility Score: inf
ROOT
ATOM      1  C   UNL     1     -45.910  35.447  28.320  1.00  0.00     0.115 C 
ATOM      2  H   UNL     1     -46.721  35.241  29.028  1.00  0.00     0.073 H 
ATOM      3  H   UNL     1     -45.186  34.624  28.319  1.00  0.00     0.073 H 
ENDROOT
BRANCH   1   4
ATOM      4  O   UNL     1     -46.460  35.610  27.011  1.00  0.00    -0.491 OA
BRANCH   4   5
ATOM      5  C   UNL     1     -47.208  34.592  26.498  1.00  0.00     0.121 A 
ATOM      6  C   UNL     1     -46.911  30.632  23.863  1.00  0.00     0.126 A 
ATOM      7  C   UNL     1     -48.271  30.384  24.004  1.00  0.00    -0.019 A 
ATOM      8  N   UNL     1     -46.325  31.699  24.442  1.00  0.00    -0.231 NA
ATOM      9  C   UNL     1     -49.056  31.269  24.738  1.00  0.00    -0.049 A 
ATOM     10  H   UNL     1     -48.719  29.503  23.555  1.00  0.00     0.066 H 
ATOM     11  C   UNL     1     -47.077  32.559  25.154  1.00  0.00     0.076 A 
ATOM     12  C   UNL     1     -48.462  32.386  25.329  1.00  0.00     0.001 A 
ATOM     13  H   UNL     1     -50.120  31.075  24.846  1.00  0.00     0.063 H 
ATOM     14  C   UNL     1     -46.480  33.664  25.745  1.00  0.00     0.007 A 
ATOM     15  C   UNL     1     -49.205  33.314  26.078  1.00  0.00    -0.049 A 
ATOM     16  H   UNL     1     -45.410  33.807  25.618  1.00  0.00     0.069 H 
ATOM     17  C   UNL     1     -48.578  34.417  26.661  1.00  0.00    -0.019 A 
ATOM     18  H   UNL     1     -50.276  33.181  26.213  1.00  0.00     0.063 H 
ATOM     19  H   UNL     1     -49.184  35.113  27.230  1.00  0.00     0.066 H 
BRANCH   6  20
ATOM     20  N   UNL     1     -46.147  29.705  23.131  1.00  0.00    -0.373 N 
ATOM     21  H   UNL     1     -45.162  29.917  23.259  1.00  0.00     0.161 HD
BRANCH  20  22
ATOM     22  C   UNL     1     -46.442  28.315  23.443  1.00  0.00     0.005 C 
ATOM     23  H   UNL     1     -47.115  28.280  24.306  1.00  0.00     0.045 H 
ATOM     24  H   UNL     1     -45.537  27.762  23.713  1.00  0.00     0.045 H 
ATOM     25  H   UNL     1     -46.947  27.812  22.610  1.00  0.00     0.045 H 
ENDBRANCH  20  22
ENDBRANCH   6  20
ENDBRANCH   4   5
ENDBRANCH   1   4
BRANCH   1  26
ATOM     26  C   UNL     1     -45.190  36.735  28.736  1.00  0.00     0.097 C 
ATOM     27  C   UNL     1     -45.664  37.340  30.050  1.00  0.00     0.007 C 
ATOM     28  O   UNL     1     -45.343  37.756  27.724  1.00  0.00    -0.348 OA
ATOM     29  H   UNL     1     -44.114  36.525  28.787  1.00  0.00     0.064 H 
ATOM     30  C   UNL     1     -45.323  38.800  29.867  1.00  0.00     0.102 C 
ATOM     31  H   UNL     1     -45.168  36.873  30.907  1.00  0.00     0.032 H 
ATOM     32  H   UNL     1     -46.747  37.235  30.178  1.00  0.00     0.032 H 
ATOM     33  C   UNL     1     -45.615  39.025  28.377  1.00  0.00     0.161 C 
ATOM     34  H   UNL     1     -45.891  39.445  30.543  1.00  0.00     0.065 H 
ATOM     35  H   UNL     1     -44.947  39.770  27.929  1.00  0.00     0.088 H 
BRANCH  30  36
ATOM     36  O   UNL     1     -43.933  38.982  30.179  1.00  0.00    -0.388 OA
ATOM     37  H   UNL     1     -43.735  39.936  30.183  1.00  0.00     0.211 HD
ENDBRANCH  30  36
BRANCH  33  38
ATOM     38  N   UNL     1     -46.979  39.454  28.084  1.00  0.00    -0.303 N 
ATOM     39  C   UNL     1     -48.141  38.792  28.372  1.00  0.00     0.013 A 
ATOM     40  C   UNL     1     -47.279  40.602  27.397  1.00  0.00     0.147 A 
ATOM     41  C   UNL     1     -49.220  39.530  27.907  1.00  0.00    -0.014 A 
ATOM     42  H   UNL     1     -48.124  37.836  28.880  1.00  0.00     0.082 H 
ATOM     43  C   UNL     1     -48.664  40.704  27.278  1.00  0.00     0.065 A 
ATOM     44  N   UNL     1     -46.361  41.466  26.932  1.00  0.00    -0.218 NA
ATOM     45  C   UNL     1     -49.128  41.849  26.600  1.00  0.00     0.136 A 
ATOM     46  C   UNL     1     -46.927  42.504  26.305  1.00  0.00     0.120 A 
ATOM     47  N   UNL     1     -48.236  42.743  26.124  1.00  0.00    -0.219 NA
ATOM     48  H   UNL     1     -46.248  43.245  25.896  1.00  0.00     0.106 H 
BRANCH  41  49
ATOM     49  C   UNL     1     -50.643  39.078  28.068  1.00  0.00    -0.014 C 
ATOM     50  C   UNL     1     -51.437  39.751  29.196  1.00  0.00    -0.046 C 
ATOM     51  C   UNL     1     -50.819  37.572  28.267  1.00  0.00    -0.046 C 
ATOM     52  H   UNL     1     -51.171  39.331  27.134  1.00  0.00     0.035 H 
ATOM     53  C   UNL     1     -52.235  38.637  29.874  1.00  0.00    -0.053 C 
ATOM     54  H   UNL     1     -52.121  40.495  28.770  1.00  0.00     0.027 H 
ATOM     55  H   UNL     1     -50.817  40.286  29.922  1.00  0.00     0.027 H 
ATOM     56  C   UNL     1     -52.195  37.465  28.906  1.00  0.00    -0.053 C 
ATOM     57  H   UNL     1     -50.055  37.146  28.924  1.00  0.00     0.027 H 
ATOM     58  H   UNL     1     -50.770  37.025  27.321  1.00  0.00     0.027 H 
ATOM     59  H   UNL     1     -51.760  38.357  30.820  1.00  0.00     0.027 H 
ATOM     60  H   UNL     1     -53.260  38.947  30.101  1.00  0.00     0.027 H 
ATOM     61  H   UNL     1     -52.974  37.582  28.143  1.00  0.00     0.027 H 
ATOM     62  H   UNL     1     -52.348  36.506  29.406  1.00  0.00     0.027 H 
ENDBRANCH  41  49
BRANCH  45  63
ATOM     63  N   UNL     1     -50.460  42.167  26.378  1.00  0.00    -0.383 N 
ATOM     64  H   UNL     1     -50.727  42.956  26.955  1.00  0.00     0.158 HD
ATOM     65  H   UNL     1     -51.087  41.380  26.392  1.00  0.00     0.158 HD
ENDBRANCH  45  63
ENDBRANCH  33  38
ENDBRANCH   1  26
TORSDOF 9
ENDMDL
