MODEL 1
REMARK VINA RESULT:     -10.0      0.000      0.000
REMARK SMILES Nc1ncnc2c1ccn2-c1csc(COc2ccc3ccc(N4CCCC4)nc3c2)n1
REMARK SMILES IDX 15 1 14 4 11 5 12 6 32 7 13 8 10 10 2 11 3 12 7 13 4 14 6 15
REMARK SMILES IDX 8 16 5 17 9 19 1 22 16 25 17 26 18 27 31 28 19 29 30 31
REMARK SMILES IDX 20 33 29 35 21 36 23 37 22 38 24 41 25 42 28 43 26 44 27 47
REMARK H PARENT 15 2 15 3 12 9 4 18 8 20 9 21 1 23 1 24 18 30 31 32 19 34
REMARK H PARENT 21 39 22 40 25 45 25 46 28 48 28 49 26 50 26 51 27 52 27 53
REMARK Flexibility Score: inf
ROOT
ATOM      1  C   UNL     1     -48.597  34.117  26.526  1.00  0.00     0.140 C 
ATOM      2  H   UNL     1     -49.680  34.179  26.363  1.00  0.00     0.078 H 
ATOM      3  H   UNL     1     -48.463  33.822  27.573  1.00  0.00     0.078 H 
ENDROOT
BRANCH   1   4
ATOM      4  C   UNL     1     -47.946  33.102  25.634  1.00  0.00     0.133 A 
ATOM      5  C   UNL     1     -47.725  31.365  24.276  1.00  0.00     0.149 A 
ATOM      6  C   UNL     1     -46.412  31.791  24.293  1.00  0.00     0.036 A 
ATOM      7  N   UNL     1     -48.588  32.104  25.061  1.00  0.00    -0.220 NA
ATOM      8  S   UNL     1     -46.258  33.169  25.307  1.00  0.00    -0.122 S 
ATOM      9  H   UNL     1     -45.549  31.393  23.780  1.00  0.00     0.078 H 
BRANCH   5  10
ATOM     10  N   UNL     1     -48.241  30.254  23.534  1.00  0.00    -0.285 N 
ATOM     11  C   UNL     1     -49.291  28.658  20.523  1.00  0.00     0.136 A 
ATOM     12  N   UNL     1     -49.090  29.617  19.601  1.00  0.00    -0.219 NA
ATOM     13  C   UNL     1     -48.983  28.925  21.865  1.00  0.00     0.062 A 
ATOM     14  C   UNL     1     -48.592  30.796  20.012  1.00  0.00     0.120 A 
ATOM     15  C   UNL     1     -48.479  30.189  22.161  1.00  0.00     0.151 A 
ATOM     16  C   UNL     1     -49.049  28.199  23.080  1.00  0.00    -0.031 A 
ATOM     17  N   UNL     1     -48.264  31.165  21.256  1.00  0.00    -0.218 NA
ATOM     18  H   UNL     1     -48.438  31.542  19.238  1.00  0.00     0.106 H 
ATOM     19  C   UNL     1     -48.594  29.028  24.080  1.00  0.00     0.013 A 
ATOM     20  H   UNL     1     -49.385  27.179  23.208  1.00  0.00     0.065 H 
ATOM     21  H   UNL     1     -48.488  28.841  25.139  1.00  0.00     0.082 H 
BRANCH  11  22
ATOM     22  N   UNL     1     -49.812  27.451  20.080  1.00  0.00    -0.383 N 
ATOM     23  H   UNL     1     -49.756  26.693  20.743  1.00  0.00     0.158 HD
ATOM     24  H   UNL     1     -50.715  27.597  19.640  1.00  0.00     0.158 HD
ENDBRANCH  11  22
ENDBRANCH   5  10
ENDBRANCH   1   4
BRANCH   1  25
ATOM     25  O   UNL     1     -47.957  35.388  26.361  1.00  0.00    -0.486 OA
BRANCH  25  26
ATOM     26  C   UNL     1     -47.196  35.876  27.387  1.00  0.00     0.122 A 
ATOM     27  C   UNL     1     -47.076  35.329  28.660  1.00  0.00    -0.019 A 
ATOM     28  C   UNL     1     -46.507  37.059  27.086  1.00  0.00     0.007 A 
ATOM     29  C   UNL     1     -46.270  35.956  29.612  1.00  0.00    -0.049 A 
ATOM     30  H   UNL     1     -47.606  34.429  28.961  1.00  0.00     0.066 H 
ATOM     31  C   UNL     1     -45.695  37.701  28.011  1.00  0.00     0.076 A 
ATOM     32  H   UNL     1     -46.606  37.495  26.095  1.00  0.00     0.069 H 
ATOM     33  C   UNL     1     -45.579  37.136  29.291  1.00  0.00     0.001 A 
ATOM     34  H   UNL     1     -46.193  35.521  30.606  1.00  0.00     0.063 H 
ATOM     35  N   UNL     1     -45.052  38.830  27.662  1.00  0.00    -0.231 NA
ATOM     36  C   UNL     1     -44.768  37.792  30.216  1.00  0.00    -0.049 A 
ATOM     37  C   UNL     1     -44.253  39.460  28.552  1.00  0.00     0.129 A 
ATOM     38  C   UNL     1     -44.108  38.960  29.842  1.00  0.00    -0.019 A 
ATOM     39  H   UNL     1     -44.648  37.410  31.226  1.00  0.00     0.063 H 
ATOM     40  H   UNL     1     -43.497  39.478  30.574  1.00  0.00     0.066 H 
BRANCH  37  41
ATOM     41  N   UNL     1     -43.626  40.623  28.158  1.00  0.00    -0.357 N 
ATOM     42  C   UNL     1     -43.663  40.998  26.749  1.00  0.00     0.019 C 
ATOM     43  C   UNL     1     -42.434  41.144  28.818  1.00  0.00     0.019 C 
ATOM     44  C   UNL     1     -42.755  42.223  26.700  1.00  0.00    -0.034 C 
ATOM     45  H   UNL     1     -44.675  41.244  26.411  1.00  0.00     0.049 H 
ATOM     46  H   UNL     1     -43.250  40.202  26.117  1.00  0.00     0.049 H 
ATOM     47  C   UNL     1     -41.673  41.871  27.708  1.00  0.00    -0.034 C 
ATOM     48  H   UNL     1     -41.801  40.361  29.251  1.00  0.00     0.049 H 
ATOM     49  H   UNL     1     -42.727  41.843  29.608  1.00  0.00     0.049 H 
ATOM     50  H   UNL     1     -42.359  42.413  25.699  1.00  0.00     0.029 H 
ATOM     51  H   UNL     1     -43.302  43.115  27.033  1.00  0.00     0.029 H 
ATOM     52  H   UNL     1     -41.133  42.747  28.077  1.00  0.00     0.029 H 
ATOM     53  H   UNL     1     -40.945  41.191  27.249  1.00  0.00     0.029 H 
ENDBRANCH  37  41
ENDBRANCH  25  26
ENDBRANCH   1  25
TORSDOF 6
ENDMDL
MODEL 2
REMARK VINA RESULT:     -10.0      1.719      2.859
REMARK SMILES Nc1ncnc2c1ccn2-c1csc(COc2ccc3ccc(N4CCCC4)nc3c2)n1
REMARK SMILES IDX 15 1 14 4 11 5 12 6 32 7 13 8 10 10 2 11 3 12 7 13 4 14 6 15
REMARK SMILES IDX 8 16 5 17 9 19 1 22 16 25 17 26 18 27 31 28 19 29 30 31
REMARK SMILES IDX 20 33 29 35 21 36 23 37 22 38 24 41 25 42 28 43 26 44 27 47
REMARK H PARENT 15 2 15 3 12 9 4 18 8 20 9 21 1 23 1 24 18 30 31 32 19 34
REMARK H PARENT 21 39 22 40 25 45 25 46 28 48 28 49 26 50 26 51 27 52 27 53
REMARK Flexibility Score: inf
ROOT
ATOM      1  C   UNL     1     -47.231  36.492  27.062  1.00  0.00     0.140 C 
ATOM      2  H   UNL     1     -46.606  37.078  26.378  1.00  0.00     0.078 H 
ATOM      3  H   UNL     1     -48.264  36.809  26.878  1.00  0.00     0.078 H 
ENDROOT
BRANCH   1   4
ATOM      4  C   UNL     1     -47.113  35.017  26.816  1.00  0.00     0.133 A 
ATOM      5  C   UNL     1     -47.422  33.034  25.876  1.00  0.00     0.149 A 
ATOM      6  C   UNL     1     -46.529  32.665  26.863  1.00  0.00     0.036 A 
ATOM      7  N   UNL     1     -47.766  34.372  25.871  1.00  0.00    -0.220 NA
ATOM      8  S   UNL     1     -46.095  34.038  27.799  1.00  0.00    -0.122 S 
ATOM      9  H   UNL     1     -46.107  31.698  27.087  1.00  0.00     0.078 H 
BRANCH   5  10
ATOM     10  N   UNL     1     -47.997  32.165  24.893  1.00  0.00    -0.285 N 
ATOM     11  C   UNL     1     -47.807  29.996  22.070  1.00  0.00     0.136 A 
ATOM     12  N   UNL     1     -46.492  30.003  21.786  1.00  0.00    -0.219 NA
ATOM     13  C   UNL     1     -48.278  30.757  23.150  1.00  0.00     0.062 A 
ATOM     14  C   UNL     1     -45.681  30.740  22.564  1.00  0.00     0.120 A 
ATOM     15  C   UNL     1     -47.335  31.483  23.873  1.00  0.00     0.151 A 
ATOM     16  C   UNL     1     -49.542  30.995  23.742  1.00  0.00    -0.031 A 
ATOM     17  N   UNL     1     -46.012  31.503  23.614  1.00  0.00    -0.218 NA
ATOM     18  H   UNL     1     -44.626  30.715  22.308  1.00  0.00     0.106 H 
ATOM     19  C   UNL     1     -49.346  31.855  24.799  1.00  0.00     0.013 A 
ATOM     20  H   UNL     1     -50.492  30.577  23.435  1.00  0.00     0.065 H 
ATOM     21  H   UNL     1     -50.061  32.268  25.497  1.00  0.00     0.082 H 
BRANCH  11  22
ATOM     22  N   UNL     1     -48.629  29.234  21.251  1.00  0.00    -0.383 N 
ATOM     23  H   UNL     1     -49.610  29.268  21.482  1.00  0.00     0.158 HD
ATOM     24  H   UNL     1     -48.391  29.384  20.276  1.00  0.00     0.158 HD
ENDBRANCH  11  22
ENDBRANCH   5  10
ENDBRANCH   1   4
BRANCH   1  25
ATOM     25  O   UNL     1     -46.940  36.778  28.434  1.00  0.00    -0.486 OA
BRANCH  25  26
ATOM     26  C   UNL     1     -45.917  37.639  28.722  1.00  0.00     0.122 A 
ATOM     27  C   UNL     1     -45.105  37.609  29.851  1.00  0.00    -0.019 A 
ATOM     28  C   UNL     1     -45.721  38.645  27.767  1.00  0.00     0.007 A 
ATOM     29  C   UNL     1     -44.107  38.572  30.013  1.00  0.00    -0.049 A 
ATOM     30  H   UNL     1     -45.226  36.870  30.638  1.00  0.00     0.066 H 
ATOM     31  C   UNL     1     -44.733  39.612  27.901  1.00  0.00     0.076 A 
ATOM     32  H   UNL     1     -46.360  38.678  26.888  1.00  0.00     0.069 H 
ATOM     33  C   UNL     1     -43.917  39.569  29.042  1.00  0.00     0.001 A 
ATOM     34  H   UNL     1     -43.485  38.541  30.905  1.00  0.00     0.063 H 
ATOM     35  N   UNL     1     -44.587  40.551  26.947  1.00  0.00    -0.231 NA
ATOM     36  C   UNL     1     -42.933  40.549  29.171  1.00  0.00    -0.049 A 
ATOM     37  C   UNL     1     -43.624  41.493  27.062  1.00  0.00     0.129 A 
ATOM     38  C   UNL     1     -42.792  41.514  28.178  1.00  0.00    -0.019 A 
ATOM     39  H   UNL     1     -42.280  40.574  30.038  1.00  0.00     0.063 H 
ATOM     40  H   UNL     1     -42.041  42.287  28.296  1.00  0.00     0.066 H 
BRANCH  37  41
ATOM     41  N   UNL     1     -43.520  42.445  26.071  1.00  0.00    -0.357 N 
ATOM     42  C   UNL     1     -44.288  42.267  24.843  1.00  0.00     0.019 C 
ATOM     43  C   UNL     1     -42.303  43.211  25.832  1.00  0.00     0.019 C 
ATOM     44  C   UNL     1     -43.796  43.415  23.966  1.00  0.00    -0.034 C 
ATOM     45  H   UNL     1     -45.368  42.338  25.015  1.00  0.00     0.049 H 
ATOM     46  H   UNL     1     -44.056  41.307  24.367  1.00  0.00     0.049 H 
ATOM     47  C   UNL     1     -42.322  43.497  24.330  1.00  0.00    -0.034 C 
ATOM     48  H   UNL     1     -41.388  42.666  26.094  1.00  0.00     0.049 H 
ATOM     49  H   UNL     1     -42.337  44.144  26.404  1.00  0.00     0.049 H 
ATOM     50  H   UNL     1     -43.963  43.231  22.902  1.00  0.00     0.029 H 
ATOM     51  H   UNL     1     -44.303  44.348  24.242  1.00  0.00     0.029 H 
ATOM     52  H   UNL     1     -41.876  44.464  24.083  1.00  0.00     0.029 H 
ATOM     53  H   UNL     1     -41.764  42.719  23.795  1.00  0.00     0.029 H 
ENDBRANCH  37  41
ENDBRANCH  25  26
ENDBRANCH   1  25
TORSDOF 6
ENDMDL
MODEL 3
REMARK VINA RESULT:     -10.0      2.319     11.564
REMARK SMILES Nc1ncnc2c1ccn2-c1csc(COc2ccc3ccc(N4CCCC4)nc3c2)n1
REMARK SMILES IDX 15 1 14 4 11 5 12 6 32 7 13 8 10 10 2 11 3 12 7 13 4 14 6 15
REMARK SMILES IDX 8 16 5 17 9 19 1 22 16 25 17 26 18 27 31 28 19 29 30 31
REMARK SMILES IDX 20 33 29 35 21 36 23 37 22 38 24 41 25 42 28 43 26 44 27 47
REMARK H PARENT 15 2 15 3 12 9 4 18 8 20 9 21 1 23 1 24 18 30 31 32 19 34
REMARK H PARENT 21 39 22 40 25 45 25 46 28 48 28 49 26 50 26 51 27 52 27 53
REMARK Flexibility Score: inf
ROOT
ATOM      1  C   UNL     1     -48.165  35.903  27.356  1.00  0.00     0.140 C 
ATOM      2  H   UNL     1     -49.154  36.183  27.738  1.00  0.00     0.078 H 
ATOM      3  H   UNL     1     -48.220  36.003  26.266  1.00  0.00     0.078 H 
ENDROOT
BRANCH   1   4
ATOM      4  C   UNL     1     -47.079  36.792  27.885  1.00  0.00     0.133 A 
ATOM      5  C   UNL     1     -45.614  38.452  27.982  1.00  0.00     0.149 A 
ATOM      6  C   UNL     1     -45.376  37.885  29.218  1.00  0.00     0.036 A 
ATOM      7  N   UNL     1     -46.570  37.809  27.220  1.00  0.00    -0.220 NA
ATOM      8  S   UNL     1     -46.393  36.517  29.439  1.00  0.00    -0.122 S 
ATOM      9  H   UNL     1     -44.688  38.182  29.995  1.00  0.00     0.078 H 
BRANCH   5  10
ATOM     10  N   UNL     1     -44.968  39.615  27.450  1.00  0.00    -0.285 N 
ATOM     11  C   UNL     1     -42.565  42.246  27.564  1.00  0.00     0.136 A 
ATOM     12  N   UNL     1     -41.935  42.013  28.730  1.00  0.00    -0.219 NA
ATOM     13  C   UNL     1     -43.604  41.392  27.166  1.00  0.00     0.062 A 
ATOM     14  C   UNL     1     -42.329  40.957  29.463  1.00  0.00     0.120 A 
ATOM     15  C   UNL     1     -43.920  40.337  28.019  1.00  0.00     0.151 A 
ATOM     16  C   UNL     1     -44.471  41.309  26.049  1.00  0.00    -0.031 A 
ATOM     17  N   UNL     1     -43.302  40.079  29.189  1.00  0.00    -0.218 NA
ATOM     18  H   UNL     1     -41.792  40.799  30.393  1.00  0.00     0.106 H 
ATOM     19  C   UNL     1     -45.292  40.222  26.245  1.00  0.00     0.013 A 
ATOM     20  H   UNL     1     -44.488  41.968  25.191  1.00  0.00     0.065 H 
ATOM     21  H   UNL     1     -46.080  39.827  25.618  1.00  0.00     0.082 H 
BRANCH  11  22
ATOM     22  N   UNL     1     -42.148  43.344  26.826  1.00  0.00    -0.383 N 
ATOM     23  H   UNL     1     -42.848  43.738  26.215  1.00  0.00     0.158 HD
ATOM     24  H   UNL     1     -41.650  43.999  27.419  1.00  0.00     0.158 HD
ENDBRANCH  11  22
ENDBRANCH   5  10
ENDBRANCH   1   4
BRANCH   1  25
ATOM     25  O   UNL     1     -47.850  34.534  27.638  1.00  0.00    -0.486 OA
BRANCH  25  26
ATOM     26  C   UNL     1     -47.498  33.715  26.601  1.00  0.00     0.122 A 
ATOM     27  C   UNL     1     -46.545  33.983  25.623  1.00  0.00    -0.019 A 
ATOM     28  C   UNL     1     -48.212  32.511  26.546  1.00  0.00     0.007 A 
ATOM     29  C   UNL     1     -46.309  33.050  24.612  1.00  0.00    -0.049 A 
ATOM     30  H   UNL     1     -45.979  34.910  25.598  1.00  0.00     0.066 H 
ATOM     31  C   UNL     1     -47.994  31.564  25.554  1.00  0.00     0.076 A 
ATOM     32  H   UNL     1     -48.965  32.303  27.302  1.00  0.00     0.069 H 
ATOM     33  C   UNL     1     -47.026  31.843  24.576  1.00  0.00     0.001 A 
ATOM     34  H   UNL     1     -45.567  33.276  23.850  1.00  0.00     0.063 H 
ATOM     35  N   UNL     1     -48.706  30.421  25.557  1.00  0.00    -0.231 NA
ATOM     36  C   UNL     1     -46.820  30.890  23.579  1.00  0.00    -0.049 A 
ATOM     37  C   UNL     1     -48.497  29.489  24.600  1.00  0.00     0.129 A 
ATOM     38  C   UNL     1     -47.562  29.712  23.594  1.00  0.00    -0.019 A 
ATOM     39  H   UNL     1     -46.094  31.055  22.789  1.00  0.00     0.063 H 
ATOM     40  H   UNL     1     -47.414  28.985  22.802  1.00  0.00     0.066 H 
BRANCH  37  41
ATOM     41  N   UNL     1     -49.259  28.340  24.631  1.00  0.00    -0.357 N 
ATOM     42  C   UNL     1     -50.631  28.394  24.139  1.00  0.00     0.019 C 
ATOM     43  C   UNL     1     -49.099  27.310  25.650  1.00  0.00     0.019 C 
ATOM     44  C   UNL     1     -51.167  27.006  24.475  1.00  0.00    -0.034 C 
ATOM     45  H   UNL     1     -50.678  28.584  23.060  1.00  0.00     0.049 H 
ATOM     46  H   UNL     1     -51.212  29.158  24.670  1.00  0.00     0.049 H 
ATOM     47  C   UNL     1     -50.496  26.709  25.807  1.00  0.00    -0.034 C 
ATOM     48  H   UNL     1     -48.753  27.702  26.614  1.00  0.00     0.049 H 
ATOM     49  H   UNL     1     -48.389  26.553  25.300  1.00  0.00     0.049 H 
ATOM     50  H   UNL     1     -52.258  26.980  24.533  1.00  0.00     0.029 H 
ATOM     51  H   UNL     1     -50.841  26.279  23.720  1.00  0.00     0.029 H 
ATOM     52  H   UNL     1     -50.469  25.642  26.040  1.00  0.00     0.029 H 
ATOM     53  H   UNL     1     -51.033  27.220  26.615  1.00  0.00     0.029 H 
ENDBRANCH  37  41
ENDBRANCH  25  26
ENDBRANCH   1  25
TORSDOF 6
ENDMDL
MODEL 4
REMARK VINA RESULT:      -9.4      2.370     11.235
REMARK SMILES Nc1ncnc2c1ccn2-c1csc(COc2ccc3ccc(N4CCCC4)nc3c2)n1
REMARK SMILES IDX 15 1 14 4 11 5 12 6 32 7 13 8 10 10 2 11 3 12 7 13 4 14 6 15
REMARK SMILES IDX 8 16 5 17 9 19 1 22 16 25 17 26 18 27 31 28 19 29 30 31
REMARK SMILES IDX 20 33 29 35 21 36 23 37 22 38 24 41 25 42 28 43 26 44 27 47
REMARK H PARENT 15 2 15 3 12 9 4 18 8 20 9 21 1 23 1 24 18 30 31 32 19 34
REMARK H PARENT 21 39 22 40 25 45 25 46 28 48 28 49 26 50 26 51 27 52 27 53
REMARK Flexibility Score: inf
ROOT
ATOM      1  C   UNL     1     -47.619  36.106  28.578  1.00  0.00     0.140 C 
ATOM      2  H   UNL     1     -46.700  35.529  28.732  1.00  0.00     0.078 H 
ATOM      3  H   UNL     1     -48.197  36.013  29.505  1.00  0.00     0.078 H 
ENDROOT
BRANCH   1   4
ATOM      4  C   UNL     1     -47.341  37.555  28.308  1.00  0.00     0.133 A 
ATOM      5  C   UNL     1     -46.203  39.421  27.946  1.00  0.00     0.149 A 
ATOM      6  C   UNL     1     -47.482  39.926  27.830  1.00  0.00     0.036 A 
ATOM      7  N   UNL     1     -46.132  38.073  28.241  1.00  0.00    -0.220 NA
ATOM      8  S   UNL     1     -48.630  38.672  28.080  1.00  0.00    -0.122 S 
ATOM      9  H   UNL     1     -47.812  40.931  27.614  1.00  0.00     0.078 H 
BRANCH   5  10
ATOM     10  N   UNL     1     -44.986  40.162  27.789  1.00  0.00    -0.285 N 
ATOM     11  C   UNL     1     -42.914  42.556  26.149  1.00  0.00     0.136 A 
ATOM     12  N   UNL     1     -43.703  42.986  25.149  1.00  0.00    -0.219 NA
ATOM     13  C   UNL     1     -43.401  41.582  27.033  1.00  0.00     0.062 A 
ATOM     14  C   UNL     1     -44.938  42.463  25.046  1.00  0.00     0.120 A 
ATOM     15  C   UNL     1     -44.695  41.116  26.815  1.00  0.00     0.151 A 
ATOM     16  C   UNL     1     -42.892  40.904  28.169  1.00  0.00    -0.031 A 
ATOM     17  N   UNL     1     -45.508  41.533  25.823  1.00  0.00    -0.218 NA
ATOM     18  H   UNL     1     -45.547  42.840  24.230  1.00  0.00     0.106 H 
ATOM     19  C   UNL     1     -43.874  40.046  28.610  1.00  0.00     0.013 A 
ATOM     20  H   UNL     1     -41.918  41.035  28.620  1.00  0.00     0.065 H 
ATOM     21  H   UNL     1     -43.871  39.364  29.449  1.00  0.00     0.082 H 
BRANCH  11  22
ATOM     22  N   UNL     1     -41.642  43.103  26.234  1.00  0.00    -0.383 N 
ATOM     23  H   UNL     1     -41.166  43.216  25.351  1.00  0.00     0.158 HD
ATOM     24  H   UNL     1     -41.646  43.910  26.848  1.00  0.00     0.158 HD
ENDBRANCH  11  22
ENDBRANCH   5  10
ENDBRANCH   1   4
BRANCH   1  25
ATOM     25  O   UNL     1     -48.423  35.563  27.524  1.00  0.00    -0.486 OA
BRANCH  25  26
ATOM     26  C   UNL     1     -47.862  34.647  26.677  1.00  0.00     0.122 A 
ATOM     27  C   UNL     1     -46.566  34.675  26.171  1.00  0.00    -0.019 A 
ATOM     28  C   UNL     1     -48.722  33.611  26.291  1.00  0.00     0.007 A 
ATOM     29  C   UNL     1     -46.141  33.673  25.297  1.00  0.00    -0.049 A 
ATOM     30  H   UNL     1     -45.862  35.467  26.412  1.00  0.00     0.066 H 
ATOM     31  C   UNL     1     -48.324  32.599  25.428  1.00  0.00     0.076 A 
ATOM     32  H   UNL     1     -49.739  33.591  26.677  1.00  0.00     0.069 H 
ATOM     33  C   UNL     1     -47.013  32.636  24.927  1.00  0.00     0.001 A 
ATOM     34  H   UNL     1     -45.128  33.712  24.903  1.00  0.00     0.063 H 
ATOM     35  N   UNL     1     -49.194  31.626  25.098  1.00  0.00    -0.231 NA
ATOM     36  C   UNL     1     -46.625  31.620  24.054  1.00  0.00    -0.049 A 
ATOM     37  C   UNL     1     -48.815  30.631  24.264  1.00  0.00     0.129 A 
ATOM     38  C   UNL     1     -47.534  30.618  23.722  1.00  0.00    -0.019 A 
ATOM     39  H   UNL     1     -45.628  31.602  23.625  1.00  0.00     0.063 H 
ATOM     40  H   UNL     1     -47.233  29.844  23.024  1.00  0.00     0.066 H 
BRANCH  37  41
ATOM     41  N   UNL     1     -49.742  29.663  23.940  1.00  0.00    -0.357 N 
ATOM     42  C   UNL     1     -51.143  30.047  23.813  1.00  0.00     0.019 C 
ATOM     43  C   UNL     1     -49.605  28.269  24.344  1.00  0.00     0.019 C 
ATOM     44  C   UNL     1     -51.844  28.708  23.604  1.00  0.00    -0.034 C 
ATOM     45  H   UNL     1     -51.315  30.718  22.964  1.00  0.00     0.049 H 
ATOM     46  H   UNL     1     -51.509  30.520  24.732  1.00  0.00     0.049 H 
ATOM     47  C   UNL     1     -51.045  27.776  24.501  1.00  0.00    -0.034 C 
ATOM     48  H   UNL     1     -49.065  28.141  25.289  1.00  0.00     0.049 H 
ATOM     49  H   UNL     1     -49.088  27.707  23.559  1.00  0.00     0.049 H 
ATOM     50  H   UNL     1     -52.905  28.744  23.866  1.00  0.00     0.029 H 
ATOM     51  H   UNL     1     -51.754  28.390  22.558  1.00  0.00     0.029 H 
ATOM     52  H   UNL     1     -51.158  26.723  24.228  1.00  0.00     0.029 H 
ATOM     53  H   UNL     1     -51.368  27.894  25.542  1.00  0.00     0.029 H 
ENDBRANCH  37  41
ENDBRANCH  25  26
ENDBRANCH   1  25
TORSDOF 6
ENDMDL
MODEL 5
REMARK VINA RESULT:      -9.3      2.667     11.107
REMARK SMILES Nc1ncnc2c1ccn2-c1csc(COc2ccc3ccc(N4CCCC4)nc3c2)n1
REMARK SMILES IDX 15 1 14 4 11 5 12 6 32 7 13 8 10 10 2 11 3 12 7 13 4 14 6 15
REMARK SMILES IDX 8 16 5 17 9 19 1 22 16 25 17 26 18 27 31 28 19 29 30 31
REMARK SMILES IDX 20 33 29 35 21 36 23 37 22 38 24 41 25 42 28 43 26 44 27 47
REMARK H PARENT 15 2 15 3 12 9 4 18 8 20 9 21 1 23 1 24 18 30 31 32 19 34
REMARK H PARENT 21 39 22 40 25 45 25 46 28 48 28 49 26 50 26 51 27 52 27 53
REMARK Flexibility Score: inf
ROOT
ATOM      1  C   UNL     1     -45.168  37.394  29.146  1.00  0.00     0.140 C 
ATOM      2  H   UNL     1     -44.774  36.955  30.071  1.00  0.00     0.078 H 
ATOM      3  H   UNL     1     -46.241  37.542  29.312  1.00  0.00     0.078 H 
ENDROOT
BRANCH   1   4
ATOM      4  C   UNL     1     -44.527  38.712  28.826  1.00  0.00     0.133 A 
ATOM      5  C   UNL     1     -44.099  40.614  27.775  1.00  0.00     0.149 A 
ATOM      6  C   UNL     1     -43.199  40.739  28.815  1.00  0.00     0.036 A 
ATOM      7  N   UNL     1     -44.835  39.445  27.776  1.00  0.00    -0.220 NA
ATOM      8  S   UNL     1     -43.292  39.359  29.834  1.00  0.00    -0.122 S 
ATOM      9  H   UNL     1     -42.510  41.538  29.041  1.00  0.00     0.078 H 
BRANCH   5  10
ATOM     10  N   UNL     1     -44.318  41.572  26.731  1.00  0.00    -0.285 N 
ATOM     11  C   UNL     1     -43.213  43.979  24.345  1.00  0.00     0.136 A 
ATOM     12  N   UNL     1     -41.881  43.982  24.531  1.00  0.00    -0.219 NA
ATOM     13  C   UNL     1     -44.011  43.132  25.128  1.00  0.00     0.062 A 
ATOM     14  C   UNL     1     -41.370  43.158  25.462  1.00  0.00     0.120 A 
ATOM     15  C   UNL     1     -43.360  42.331  26.062  1.00  0.00     0.151 A 
ATOM     16  C   UNL     1     -45.396  42.852  25.221  1.00  0.00    -0.031 A 
ATOM     17  N   UNL     1     -42.026  42.311  26.265  1.00  0.00    -0.218 NA
ATOM     18  H   UNL     1     -40.291  43.184  25.578  1.00  0.00     0.106 H 
ATOM     19  C   UNL     1     -45.559  41.901  26.204  1.00  0.00     0.013 A 
ATOM     20  H   UNL     1     -46.189  43.290  24.630  1.00  0.00     0.065 H 
ATOM     21  H   UNL     1     -46.460  41.427  26.567  1.00  0.00     0.082 H 
BRANCH  11  22
ATOM     22  N   UNL     1     -43.722  44.842  23.384  1.00  0.00    -0.383 N 
ATOM     23  H   UNL     1     -44.025  45.739  23.734  1.00  0.00     0.158 HD
ATOM     24  H   UNL     1     -43.116  44.859  22.570  1.00  0.00     0.158 HD
ENDBRANCH  11  22
ENDBRANCH   5  10
ENDBRANCH   1   4
BRANCH   1  25
ATOM     25  O   UNL     1     -45.032  36.506  28.031  1.00  0.00    -0.486 OA
BRANCH  25  26
ATOM     26  C   UNL     1     -46.140  35.841  27.583  1.00  0.00     0.122 A 
ATOM     27  C   UNL     1     -47.466  36.191  27.821  1.00  0.00    -0.019 A 
ATOM     28  C   UNL     1     -45.862  34.689  26.836  1.00  0.00     0.007 A 
ATOM     29  C   UNL     1     -48.494  35.398  27.309  1.00  0.00    -0.049 A 
ATOM     30  H   UNL     1     -47.743  37.057  28.415  1.00  0.00     0.066 H 
ATOM     31  C   UNL     1     -46.865  33.886  26.311  1.00  0.00     0.076 A 
ATOM     32  H   UNL     1     -44.828  34.407  26.656  1.00  0.00     0.069 H 
ATOM     33  C   UNL     1     -48.199  34.251  26.554  1.00  0.00     0.001 A 
ATOM     34  H   UNL     1     -49.525  35.678  27.511  1.00  0.00     0.063 H 
ATOM     35  N   UNL     1     -46.537  32.794  25.595  1.00  0.00    -0.231 NA
ATOM     36  C   UNL     1     -49.200  33.433  26.030  1.00  0.00    -0.049 A 
ATOM     37  C   UNL     1     -47.506  32.008  25.072  1.00  0.00     0.129 A 
ATOM     38  C   UNL     1     -48.847  32.307  25.290  1.00  0.00    -0.019 A 
ATOM     39  H   UNL     1     -50.249  33.657  26.196  1.00  0.00     0.063 H 
ATOM     40  H   UNL     1     -49.630  31.663  24.906  1.00  0.00     0.066 H 
BRANCH  37  41
ATOM     41  N   UNL     1     -47.126  30.891  24.359  1.00  0.00    -0.357 N 
ATOM     42  C   UNL     1     -46.198  31.051  23.245  1.00  0.00     0.019 C 
ATOM     43  C   UNL     1     -48.000  29.740  24.164  1.00  0.00     0.019 C 
ATOM     44  C   UNL     1     -46.151  29.652  22.639  1.00  0.00    -0.034 C 
ATOM     45  H   UNL     1     -45.204  31.371  23.576  1.00  0.00     0.049 H 
ATOM     46  H   UNL     1     -46.585  31.764  22.507  1.00  0.00     0.049 H 
ATOM     47  C   UNL     1     -47.584  29.173  22.806  1.00  0.00    -0.034 C 
ATOM     48  H   UNL     1     -49.065  30.001  24.147  1.00  0.00     0.049 H 
ATOM     49  H   UNL     1     -47.826  29.007  24.959  1.00  0.00     0.049 H 
ATOM     50  H   UNL     1     -45.822  29.656  21.597  1.00  0.00     0.029 H 
ATOM     51  H   UNL     1     -45.472  29.011  23.216  1.00  0.00     0.029 H 
ATOM     52  H   UNL     1     -47.678  28.085  22.761  1.00  0.00     0.029 H 
ATOM     53  H   UNL     1     -48.213  29.601  22.015  1.00  0.00     0.029 H 
ENDBRANCH  37  41
ENDBRANCH  25  26
ENDBRANCH   1  25
TORSDOF 6
ENDMDL
MODEL 6
REMARK VINA RESULT:      -9.2      1.960      2.389
REMARK SMILES Nc1ncnc2c1ccn2-c1csc(COc2ccc3ccc(N4CCCC4)nc3c2)n1
REMARK SMILES IDX 15 1 14 4 11 5 12 6 32 7 13 8 10 10 2 11 3 12 7 13 4 14 6 15
REMARK SMILES IDX 8 16 5 17 9 19 1 22 16 25 17 26 18 27 31 28 19 29 30 31
REMARK SMILES IDX 20 33 29 35 21 36 23 37 22 38 24 41 25 42 28 43 26 44 27 47
REMARK H PARENT 15 2 15 3 12 9 4 18 8 20 9 21 1 23 1 24 18 30 31 32 19 34
REMARK H PARENT 21 39 22 40 25 45 25 46 28 48 28 49 26 50 26 51 27 52 27 53
REMARK Flexibility Score: inf
ROOT
ATOM      1  C   UNL     1     -48.684  34.715  26.649  1.00  0.00     0.140 C 
ATOM      2  H   UNL     1     -48.733  35.631  26.047  1.00  0.00     0.078 H 
ATOM      3  H   UNL     1     -49.722  34.442  26.873  1.00  0.00     0.078 H 
ENDROOT
BRANCH   1   4
ATOM      4  C   UNL     1     -48.019  33.588  25.916  1.00  0.00     0.133 A 
ATOM      5  C   UNL     1     -47.768  31.658  24.857  1.00  0.00     0.149 A 
ATOM      6  C   UNL     1     -46.472  32.123  24.763  1.00  0.00     0.036 A 
ATOM      7  N   UNL     1     -48.638  32.489  25.536  1.00  0.00    -0.220 NA
ATOM      8  S   UNL     1     -46.344  33.654  25.531  1.00  0.00    -0.122 S 
ATOM      9  H   UNL     1     -45.609  31.674  24.296  1.00  0.00     0.078 H 
BRANCH   5  10
ATOM     10  N   UNL     1     -48.262  30.424  24.323  1.00  0.00    -0.285 N 
ATOM     11  C   UNL     1     -49.223  28.282  21.640  1.00  0.00     0.136 A 
ATOM     12  N   UNL     1     -48.997  29.050  20.560  1.00  0.00    -0.219 NA
ATOM     13  C   UNL     1     -48.955  28.799  22.915  1.00  0.00     0.062 A 
ATOM     14  C   UNL     1     -48.512  30.289  20.754  1.00  0.00     0.120 A 
ATOM     15  C   UNL     1     -48.460  30.099  22.982  1.00  0.00     0.151 A 
ATOM     16  C   UNL     1     -49.055  28.316  24.243  1.00  0.00    -0.031 A 
ATOM     17  N   UNL     1     -48.220  30.889  21.915  1.00  0.00    -0.218 NA
ATOM     18  H   UNL     1     -48.336  30.876  19.858  1.00  0.00     0.106 H 
ATOM     19  C   UNL     1     -48.630  29.321  25.081  1.00  0.00     0.013 A 
ATOM     20  H   UNL     1     -49.394  27.335  24.553  1.00  0.00     0.065 H 
ATOM     21  H   UNL     1     -48.554  29.338  26.159  1.00  0.00     0.082 H 
BRANCH  11  22
ATOM     22  N   UNL     1     -49.731  27.009  21.418  1.00  0.00    -0.383 N 
ATOM     23  H   UNL     1     -49.188  26.437  20.789  1.00  0.00     0.158 HD
ATOM     24  H   UNL     1     -50.000  26.580  22.297  1.00  0.00     0.158 HD
ENDBRANCH  11  22
ENDBRANCH   5  10
ENDBRANCH   1   4
BRANCH   1  25
ATOM     25  O   UNL     1     -48.026  34.932  27.903  1.00  0.00    -0.486 OA
BRANCH  25  26
ATOM     26  C   UNL     1     -47.094  35.929  27.990  1.00  0.00     0.122 A 
ATOM     27  C   UNL     1     -45.843  35.841  28.593  1.00  0.00    -0.019 A 
ATOM     28  C   UNL     1     -47.493  37.147  27.423  1.00  0.00     0.007 A 
ATOM     29  C   UNL     1     -45.005  36.957  28.618  1.00  0.00    -0.049 A 
ATOM     30  H   UNL     1     -45.489  34.933  29.073  1.00  0.00     0.066 H 
ATOM     31  C   UNL     1     -46.678  38.271  27.429  1.00  0.00     0.076 A 
ATOM     32  H   UNL     1     -48.474  37.222  26.959  1.00  0.00     0.069 H 
ATOM     33  C   UNL     1     -45.417  38.168  28.036  1.00  0.00     0.001 A 
ATOM     34  H   UNL     1     -44.034  36.876  29.100  1.00  0.00     0.063 H 
ATOM     35  N   UNL     1     -47.113  39.411  26.861  1.00  0.00    -0.231 NA
ATOM     36  C   UNL     1     -44.608  39.304  28.045  1.00  0.00    -0.049 A 
ATOM     37  C   UNL     1     -46.325  40.510  26.855  1.00  0.00     0.129 A 
ATOM     38  C   UNL     1     -45.070  40.478  27.454  1.00  0.00    -0.019 A 
ATOM     39  H   UNL     1     -43.628  39.290  28.511  1.00  0.00     0.063 H 
ATOM     40  H   UNL     1     -44.445  41.364  27.486  1.00  0.00     0.066 H 
BRANCH  37  41
ATOM     41  N   UNL     1     -46.816  41.662  26.278  1.00  0.00    -0.357 N 
ATOM     42  C   UNL     1     -45.875  42.698  25.867  1.00  0.00     0.019 C 
ATOM     43  C   UNL     1     -48.116  42.227  26.619  1.00  0.00     0.019 C 
ATOM     44  C   UNL     1     -46.792  43.836  25.430  1.00  0.00    -0.034 C 
ATOM     45  H   UNL     1     -45.231  42.372  25.042  1.00  0.00     0.049 H 
ATOM     46  H   UNL     1     -45.252  43.023  26.709  1.00  0.00     0.049 H 
ATOM     47  C   UNL     1     -47.938  43.734  26.424  1.00  0.00    -0.034 C 
ATOM     48  H   UNL     1     -48.423  42.020  27.651  1.00  0.00     0.049 H 
ATOM     49  H   UNL     1     -48.878  41.837  25.936  1.00  0.00     0.049 H 
ATOM     50  H   UNL     1     -46.294  44.809  25.452  1.00  0.00     0.029 H 
ATOM     51  H   UNL     1     -47.161  43.657  24.412  1.00  0.00     0.029 H 
ATOM     52  H   UNL     1     -48.851  44.221  26.072  1.00  0.00     0.029 H 
ATOM     53  H   UNL     1     -47.648  44.200  27.374  1.00  0.00     0.029 H 
ENDBRANCH  37  41
ENDBRANCH  25  26
ENDBRANCH   1  25
TORSDOF 6
ENDMDL
MODEL 7
REMARK VINA RESULT:      -8.8      3.241      6.015
REMARK SMILES Nc1ncnc2c1ccn2-c1csc(COc2ccc3ccc(N4CCCC4)nc3c2)n1
REMARK SMILES IDX 15 1 14 4 11 5 12 6 32 7 13 8 10 10 2 11 3 12 7 13 4 14 6 15
REMARK SMILES IDX 8 16 5 17 9 19 1 22 16 25 17 26 18 27 31 28 19 29 30 31
REMARK SMILES IDX 20 33 29 35 21 36 23 37 22 38 24 41 25 42 28 43 26 44 27 47
REMARK H PARENT 15 2 15 3 12 9 4 18 8 20 9 21 1 23 1 24 18 30 31 32 19 34
REMARK H PARENT 21 39 22 40 25 45 25 46 28 48 28 49 26 50 26 51 27 52 27 53
REMARK Flexibility Score: inf
ROOT
ATOM      1  C   UNL     1     -46.324  39.252  27.202  1.00  0.00     0.140 C 
ATOM      2  H   UNL     1     -46.143  39.530  26.156  1.00  0.00     0.078 H 
ATOM      3  H   UNL     1     -47.303  39.670  27.463  1.00  0.00     0.078 H 
ENDROOT
BRANCH   1   4
ATOM      4  C   UNL     1     -46.350  37.765  27.397  1.00  0.00     0.133 A 
ATOM      5  C   UNL     1     -46.965  35.649  27.170  1.00  0.00     0.149 A 
ATOM      6  C   UNL     1     -45.917  35.472  28.050  1.00  0.00     0.036 A 
ATOM      7  N   UNL     1     -47.220  36.961  26.821  1.00  0.00    -0.220 NA
ATOM      8  S   UNL     1     -45.217  36.993  28.437  1.00  0.00    -0.122 S 
ATOM      9  H   UNL     1     -45.519  34.565  28.479  1.00  0.00     0.078 H 
BRANCH   5  10
ATOM     10  N   UNL     1     -47.781  34.611  26.612  1.00  0.00    -0.285 N 
ATOM     11  C   UNL     1     -48.283  31.666  24.665  1.00  0.00     0.136 A 
ATOM     12  N   UNL     1     -47.042  31.391  24.229  1.00  0.00    -0.219 NA
ATOM     13  C   UNL     1     -48.488  32.787  25.484  1.00  0.00     0.062 A 
ATOM     14  C   UNL     1     -46.042  32.207  24.608  1.00  0.00     0.120 A 
ATOM     15  C   UNL     1     -47.371  33.555  25.800  1.00  0.00     0.151 A 
ATOM     16  C   UNL     1     -49.605  33.381  26.122  1.00  0.00    -0.031 A 
ATOM     17  N   UNL     1     -46.115  33.299  25.379  1.00  0.00    -0.218 NA
ATOM     18  H   UNL     1     -45.053  31.948  24.241  1.00  0.00     0.106 H 
ATOM     19  C   UNL     1     -49.150  34.488  26.801  1.00  0.00     0.013 A 
ATOM     20  H   UNL     1     -50.629  33.032  26.096  1.00  0.00     0.065 H 
ATOM     21  H   UNL     1     -49.693  35.199  27.409  1.00  0.00     0.082 H 
BRANCH  11  22
ATOM     22  N   UNL     1     -49.302  30.817  24.258  1.00  0.00    -0.383 N 
ATOM     23  H   UNL     1     -49.238  30.503  23.301  1.00  0.00     0.158 HD
ATOM     24  H   UNL     1     -49.463  30.099  24.956  1.00  0.00     0.158 HD
ENDBRANCH  11  22
ENDBRANCH   5  10
ENDBRANCH   1   4
BRANCH   1  25
ATOM     25  O   UNL     1     -45.364  39.839  28.087  1.00  0.00    -0.486 OA
BRANCH  25  26
ATOM     26  C   UNL     1     -44.396  40.649  27.561  1.00  0.00     0.122 A 
ATOM     27  C   UNL     1     -43.149  40.916  28.118  1.00  0.00    -0.019 A 
ATOM     28  C   UNL     1     -44.749  41.265  26.353  1.00  0.00     0.007 A 
ATOM     29  C   UNL     1     -42.270  41.783  27.466  1.00  0.00    -0.049 A 
ATOM     30  H   UNL     1     -42.830  40.490  29.065  1.00  0.00     0.066 H 
ATOM     31  C   UNL     1     -43.892  42.126  25.681  1.00  0.00     0.076 A 
ATOM     32  H   UNL     1     -45.726  41.066  25.919  1.00  0.00     0.069 H 
ATOM     33  C   UNL     1     -42.636  42.385  26.251  1.00  0.00     0.001 A 
ATOM     34  H   UNL     1     -41.303  41.989  27.918  1.00  0.00     0.063 H 
ATOM     35  N   UNL     1     -44.284  42.683  24.520  1.00  0.00    -0.231 NA
ATOM     36  C   UNL     1     -41.785  43.259  25.574  1.00  0.00    -0.049 A 
ATOM     37  C   UNL     1     -43.456  43.519  23.853  1.00  0.00     0.129 A 
ATOM     38  C   UNL     1     -42.202  43.827  24.373  1.00  0.00    -0.019 A 
ATOM     39  H   UNL     1     -40.806  43.507  25.971  1.00  0.00     0.063 H 
ATOM     40  H   UNL     1     -41.545  44.524  23.864  1.00  0.00     0.066 H 
BRANCH  37  41
ATOM     41  N   UNL     1     -43.903  44.080  22.676  1.00  0.00    -0.357 N 
ATOM     42  C   UNL     1     -43.002  44.946  21.924  1.00  0.00     0.019 C 
ATOM     43  C   UNL     1     -45.298  44.435  22.448  1.00  0.00     0.019 C 
ATOM     44  C   UNL     1     -43.894  45.472  20.804  1.00  0.00    -0.034 C 
ATOM     45  H   UNL     1     -42.142  44.401  21.520  1.00  0.00     0.049 H 
ATOM     46  H   UNL     1     -42.649  45.781  22.542  1.00  0.00     0.049 H 
ATOM     47  C   UNL     1     -45.236  45.633  21.500  1.00  0.00    -0.034 C 
ATOM     48  H   UNL     1     -45.832  44.714  23.364  1.00  0.00     0.049 H 
ATOM     49  H   UNL     1     -45.819  43.595  21.975  1.00  0.00     0.049 H 
ATOM     50  H   UNL     1     -43.522  46.405  20.374  1.00  0.00     0.029 H 
ATOM     51  H   UNL     1     -43.975  44.727  20.001  1.00  0.00     0.029 H 
ATOM     52  H   UNL     1     -46.077  45.659  20.802  1.00  0.00     0.029 H 
ATOM     53  H   UNL     1     -45.244  46.566  22.077  1.00  0.00     0.029 H 
ENDBRANCH  37  41
ENDBRANCH  25  26
ENDBRANCH   1  25
TORSDOF 6
ENDMDL
