MODEL 1
REMARK VINA RESULT:     -11.5      0.000      0.000
REMARK SMILES O=C(NCc1ccc2cc(CNCc3cn4ccccc4n3)[nH]c2c1)c1cc(=O)n2ccccc2n1
REMARK SMILES IDX 5 1 6 2 7 3 8 4 9 5 10 6 23 7 24 8 25 9 4 15 3 18 1 19 2 20
REMARK SMILES IDX 26 22 27 23 36 24 28 25 35 27 29 28 30 29 34 30 31 31 33 32
REMARK SMILES IDX 32 34 11 38 12 41 13 43 14 46 15 47 22 48 16 49 21 51 17 52
REMARK SMILES IDX 20 53 18 54 19 56
REMARK H PARENT 6 10 7 11 9 12 23 13 25 14 4 16 4 17 3 21 27 26 34 33 31 35
REMARK H PARENT 33 36 32 37 11 39 11 40 12 42 13 44 13 45 15 50 17 55 20 57
REMARK H PARENT 18 58 19 59
REMARK Flexibility Score: inf
ROOT
ATOM      1  C   UNL     1     -46.947  33.321  25.166  1.00  0.00    -0.027 A 
ATOM      2  C   UNL     1     -48.190  32.990  25.722  1.00  0.00    -0.057 A 
ATOM      3  C   UNL     1     -48.886  33.894  26.534  1.00  0.00    -0.052 A 
ATOM      4  C   UNL     1     -48.322  35.156  26.800  1.00  0.00    -0.000 A 
ATOM      5  C   UNL     1     -48.736  36.284  27.563  1.00  0.00    -0.032 A 
ATOM      6  C   UNL     1     -47.757  37.252  27.460  1.00  0.00     0.030 A 
ATOM      7  N   UNL     1     -46.766  36.740  26.655  1.00  0.00    -0.357 N 
ATOM      8  C   UNL     1     -47.083  35.467  26.244  1.00  0.00     0.046 A 
ATOM      9  C   UNL     1     -46.371  34.575  25.432  1.00  0.00    -0.033 A 
ATOM     10  H   UNL     1     -48.627  32.011  25.528  1.00  0.00     0.063 H 
ATOM     11  H   UNL     1     -49.848  33.620  26.956  1.00  0.00     0.063 H 
ATOM     12  H   UNL     1     -49.656  36.373  28.124  1.00  0.00     0.065 H 
ATOM     13  H   UNL     1     -45.914  37.238  26.435  1.00  0.00     0.166 HD
ATOM     14  H   UNL     1     -45.403  34.849  25.022  1.00  0.00     0.065 H 
ENDROOT
BRANCH   1  15
ATOM     15  C   UNL     1     -46.211  32.313  24.319  1.00  0.00     0.043 C 
ATOM     16  H   UNL     1     -45.148  32.296  24.581  1.00  0.00     0.054 H 
ATOM     17  H   UNL     1     -46.281  32.585  23.260  1.00  0.00     0.054 H 
BRANCH  15  18
ATOM     18  N   UNL     1     -46.728  30.986  24.542  1.00  0.00    -0.347 N 
ATOM     19  O   UNL     1     -47.993  30.849  22.625  1.00  0.00    -0.268 OA
ATOM     20  C   UNL     1     -47.641  30.393  23.707  1.00  0.00     0.270 C 
ATOM     21  H   UNL     1     -46.617  30.559  25.456  1.00  0.00     0.164 HD
BRANCH  20  22
ATOM     22  C   UNL     1     -48.187  29.106  24.276  1.00  0.00     0.136 A 
ATOM     23  C   UNL     1     -49.515  28.974  24.284  1.00  0.00     0.035 A 
ATOM     24  N   UNL     1     -47.302  28.164  24.751  1.00  0.00    -0.225 NA
ATOM     25  C   UNL     1     -50.089  27.741  24.836  1.00  0.00     0.258 A 
ATOM     26  H   UNL     1     -50.200  29.723  23.909  1.00  0.00     0.071 H 
ATOM     27  C   UNL     1     -47.814  27.078  25.245  1.00  0.00     0.140 A 
ATOM     28  O   UNL     1     -51.312  27.608  24.840  1.00  0.00    -0.269 OA
ATOM     29  N   UNL     1     -49.177  26.812  25.315  1.00  0.00    -0.268 N 
ATOM     30  C   UNL     1     -46.895  26.033  25.779  1.00  0.00    -0.019 A 
ATOM     31  C   UNL     1     -49.647  25.621  25.858  1.00  0.00     0.014 A 
ATOM     32  C   UNL     1     -47.393  24.903  26.294  1.00  0.00    -0.057 A 
ATOM     33  H   UNL     1     -45.831  26.233  25.734  1.00  0.00     0.066 H 
ATOM     34  C   UNL     1     -48.814  24.686  26.335  1.00  0.00    -0.045 A 
ATOM     35  H   UNL     1     -50.725  25.479  25.880  1.00  0.00     0.082 H 
ATOM     36  H   UNL     1     -46.740  24.132  26.689  1.00  0.00     0.062 H 
ATOM     37  H   UNL     1     -49.192  23.761  26.757  1.00  0.00     0.064 H 
ENDBRANCH  20  22
ENDBRANCH  15  18
ENDBRANCH   1  15
BRANCH   6  38
ATOM     38  C   UNL     1     -47.670  38.624  28.031  1.00  0.00     0.036 C 
ATOM     39  H   UNL     1     -47.015  39.227  27.390  1.00  0.00     0.049 H 
ATOM     40  H   UNL     1     -48.665  39.085  28.031  1.00  0.00     0.049 H 
BRANCH  38  41
ATOM     41  N   UNL     1     -47.135  38.560  29.388  1.00  0.00    -0.306 NA
ATOM     42  H   UNL     1     -46.927  39.513  29.696  1.00  0.00     0.123 HD
BRANCH  41  43
ATOM     43  C   UNL     1     -45.867  37.827  29.402  1.00  0.00     0.040 C 
ATOM     44  H   UNL     1     -45.831  37.079  28.600  1.00  0.00     0.050 H 
ATOM     45  H   UNL     1     -45.731  37.313  30.360  1.00  0.00     0.050 H 
BRANCH  43  46
ATOM     46  C   UNL     1     -44.768  38.815  29.188  1.00  0.00     0.073 A 
ATOM     47  C   UNL     1     -43.709  39.130  30.017  1.00  0.00     0.033 A 
ATOM     48  N   UNL     1     -44.729  39.581  28.040  1.00  0.00    -0.232 NA
ATOM     49  N   UNL     1     -43.006  40.111  29.366  1.00  0.00    -0.307 N 
ATOM     50  H   UNL     1     -43.415  38.758  30.988  1.00  0.00     0.084 H 
ATOM     51  C   UNL     1     -43.667  40.349  28.165  1.00  0.00     0.137 A 
ATOM     52  C   UNL     1     -41.852  40.785  29.758  1.00  0.00     0.010 A 
ATOM     53  C   UNL     1     -43.111  41.340  27.306  1.00  0.00    -0.019 A 
ATOM     54  C   UNL     1     -41.333  41.720  28.945  1.00  0.00    -0.045 A 
ATOM     55  H   UNL     1     -41.419  40.522  30.714  1.00  0.00     0.082 H 
ATOM     56  C   UNL     1     -41.995  41.997  27.677  1.00  0.00    -0.057 A 
ATOM     57  H   UNL     1     -43.606  41.544  26.364  1.00  0.00     0.066 H 
ATOM     58  H   UNL     1     -40.436  42.273  29.202  1.00  0.00     0.064 H 
ATOM     59  H   UNL     1     -41.560  42.755  27.033  1.00  0.00     0.062 H 
ENDBRANCH  43  46
ENDBRANCH  41  43
ENDBRANCH  38  41
ENDBRANCH   6  38
TORSDOF 7
ENDMDL
MODEL 2
REMARK VINA RESULT:     -11.3      3.027     12.295
REMARK SMILES O=C(NCc1ccc2cc(CNCc3cn4ccccc4n3)[nH]c2c1)c1cc(=O)n2ccccc2n1
REMARK SMILES IDX 5 1 6 2 7 3 8 4 9 5 10 6 23 7 24 8 25 9 4 15 3 18 1 19 2 20
REMARK SMILES IDX 26 22 27 23 36 24 28 25 35 27 29 28 30 29 34 30 31 31 33 32
REMARK SMILES IDX 32 34 11 38 12 41 13 43 14 46 15 47 22 48 16 49 21 51 17 52
REMARK SMILES IDX 20 53 18 54 19 56
REMARK H PARENT 6 10 7 11 9 12 23 13 25 14 4 16 4 17 3 21 27 26 34 33 31 35
REMARK H PARENT 33 36 32 37 11 39 11 40 12 42 13 44 13 45 15 50 17 55 20 57
REMARK H PARENT 18 58 19 59
REMARK Flexibility Score: inf
ROOT
ATOM      1  C   UNL     1     -47.799  35.839  27.124  1.00  0.00    -0.027 A 
ATOM      2  C   UNL     1     -46.479  35.601  26.718  1.00  0.00    -0.057 A 
ATOM      3  C   UNL     1     -46.130  34.434  26.027  1.00  0.00    -0.052 A 
ATOM      4  C   UNL     1     -47.125  33.481  25.739  1.00  0.00    -0.000 A 
ATOM      5  C   UNL     1     -47.126  32.220  25.080  1.00  0.00    -0.032 A 
ATOM      6  C   UNL     1     -48.415  31.727  25.101  1.00  0.00     0.030 A 
ATOM      7  N   UNL     1     -49.191  32.656  25.754  1.00  0.00    -0.357 N 
ATOM      8  C   UNL     1     -48.432  33.730  26.154  1.00  0.00     0.046 A 
ATOM      9  C   UNL     1     -48.799  34.889  26.849  1.00  0.00    -0.033 A 
ATOM     10  H   UNL     1     -45.702  36.331  26.946  1.00  0.00     0.063 H 
ATOM     11  H   UNL     1     -45.102  34.268  25.721  1.00  0.00     0.063 H 
ATOM     12  H   UNL     1     -46.270  31.730  24.636  1.00  0.00     0.065 H 
ATOM     13  H   UNL     1     -50.179  32.532  25.931  1.00  0.00     0.166 HD
ATOM     14  H   UNL     1     -49.826  35.046  27.164  1.00  0.00     0.065 H 
ENDROOT
BRANCH   1  15
ATOM     15  C   UNL     1     -48.135  37.092  27.892  1.00  0.00     0.043 C 
ATOM     16  H   UNL     1     -48.362  36.852  28.935  1.00  0.00     0.054 H 
ATOM     17  H   UNL     1     -49.024  37.571  27.466  1.00  0.00     0.054 H 
BRANCH  15  18
ATOM     18  N   UNL     1     -47.017  38.002  27.895  1.00  0.00    -0.347 N 
ATOM     19  O   UNL     1     -48.200  39.908  27.385  1.00  0.00    -0.268 OA
ATOM     20  C   UNL     1     -47.135  39.328  27.565  1.00  0.00     0.270 C 
ATOM     21  H   UNL     1     -46.074  37.626  27.901  1.00  0.00     0.164 HD
BRANCH  20  22
ATOM     22  C   UNL     1     -45.794  40.008  27.431  1.00  0.00     0.136 A 
ATOM     23  C   UNL     1     -45.570  40.661  26.288  1.00  0.00     0.035 A 
ATOM     24  N   UNL     1     -44.895  39.909  28.468  1.00  0.00    -0.225 NA
ATOM     25  C   UNL     1     -44.275  41.330  26.112  1.00  0.00     0.258 A 
ATOM     26  H   UNL     1     -46.285  40.730  25.479  1.00  0.00     0.071 H 
ATOM     27  C   UNL     1     -43.748  40.495  28.305  1.00  0.00     0.140 A 
ATOM     28  O   UNL     1     -44.063  41.941  25.066  1.00  0.00    -0.269 OA
ATOM     29  N   UNL     1     -43.383  41.209  27.168  1.00  0.00    -0.268 N 
ATOM     30  C   UNL     1     -42.739  40.409  29.398  1.00  0.00    -0.019 A 
ATOM     31  C   UNL     1     -42.134  41.812  27.071  1.00  0.00     0.014 A 
ATOM     32  C   UNL     1     -41.548  41.004  29.259  1.00  0.00    -0.057 A 
ATOM     33  H   UNL     1     -43.011  39.851  30.286  1.00  0.00     0.066 H 
ATOM     34  C   UNL     1     -41.233  41.730  28.059  1.00  0.00    -0.045 A 
ATOM     35  H   UNL     1     -41.917  42.354  26.154  1.00  0.00     0.082 H 
ATOM     36  H   UNL     1     -40.800  40.950  30.043  1.00  0.00     0.062 H 
ATOM     37  H   UNL     1     -40.261  42.203  27.972  1.00  0.00     0.064 H 
ENDBRANCH  20  22
ENDBRANCH  15  18
ENDBRANCH   1  15
BRANCH   6  38
ATOM     38  C   UNL     1     -48.995  30.471  24.551  1.00  0.00     0.036 C 
ATOM     39  H   UNL     1     -48.319  29.642  24.790  1.00  0.00     0.049 H 
ATOM     40  H   UNL     1     -49.961  30.273  25.030  1.00  0.00     0.049 H 
BRANCH  38  41
ATOM     41  N   UNL     1     -49.157  30.596  23.105  1.00  0.00    -0.306 NA
ATOM     42  H   UNL     1     -50.158  30.589  22.893  1.00  0.00     0.123 HD
BRANCH  41  43
ATOM     43  C   UNL     1     -48.576  29.436  22.426  1.00  0.00     0.040 C 
ATOM     44  H   UNL     1     -47.631  29.695  21.932  1.00  0.00     0.050 H 
ATOM     45  H   UNL     1     -49.266  29.049  21.667  1.00  0.00     0.050 H 
BRANCH  43  46
ATOM     46  C   UNL     1     -48.308  28.390  23.458  1.00  0.00     0.073 A 
ATOM     47  C   UNL     1     -47.099  27.961  23.968  1.00  0.00     0.033 A 
ATOM     48  N   UNL     1     -49.351  27.685  24.026  1.00  0.00    -0.232 NA
ATOM     49  N   UNL     1     -47.404  26.972  24.867  1.00  0.00    -0.307 N 
ATOM     50  H   UNL     1     -46.081  28.260  23.765  1.00  0.00     0.084 H 
ATOM     51  C   UNL     1     -48.790  26.842  24.868  1.00  0.00     0.137 A 
ATOM     52  C   UNL     1     -46.558  26.202  25.662  1.00  0.00     0.010 A 
ATOM     53  C   UNL     1     -49.348  25.863  25.739  1.00  0.00    -0.019 A 
ATOM     54  C   UNL     1     -47.090  25.279  26.481  1.00  0.00    -0.045 A 
ATOM     55  H   UNL     1     -45.494  26.385  25.583  1.00  0.00     0.082 H 
ATOM     56  C   UNL     1     -48.537  25.115  26.511  1.00  0.00    -0.057 A 
ATOM     57  H   UNL     1     -50.424  25.743  25.758  1.00  0.00     0.066 H 
ATOM     58  H   UNL     1     -46.475  24.655  27.121  1.00  0.00     0.064 H 
ATOM     59  H   UNL     1     -48.948  24.365  27.180  1.00  0.00     0.062 H 
ENDBRANCH  43  46
ENDBRANCH  41  43
ENDBRANCH  38  41
ENDBRANCH   6  38
TORSDOF 7
ENDMDL
MODEL 3
REMARK VINA RESULT:     -11.3      3.313     12.419
REMARK SMILES O=C(NCc1ccc2cc(CNCc3cn4ccccc4n3)[nH]c2c1)c1cc(=O)n2ccccc2n1
REMARK SMILES IDX 5 1 6 2 7 3 8 4 9 5 10 6 23 7 24 8 25 9 4 15 3 18 1 19 2 20
REMARK SMILES IDX 26 22 27 23 36 24 28 25 35 27 29 28 30 29 34 30 31 31 33 32
REMARK SMILES IDX 32 34 11 38 12 41 13 43 14 46 15 47 22 48 16 49 21 51 17 52
REMARK SMILES IDX 20 53 18 54 19 56
REMARK H PARENT 6 10 7 11 9 12 23 13 25 14 4 16 4 17 3 21 27 26 34 33 31 35
REMARK H PARENT 33 36 32 37 11 39 11 40 12 42 13 44 13 45 15 50 17 55 20 57
REMARK H PARENT 18 58 19 59
REMARK Flexibility Score: inf
ROOT
ATOM      1  C   UNL     1     -46.262  35.062  27.517  1.00  0.00    -0.027 A 
ATOM      2  C   UNL     1     -47.663  35.089  27.530  1.00  0.00    -0.057 A 
ATOM      3  C   UNL     1     -48.414  34.266  26.682  1.00  0.00    -0.052 A 
ATOM      4  C   UNL     1     -47.747  33.398  25.797  1.00  0.00    -0.000 A 
ATOM      5  C   UNL     1     -48.179  32.456  24.821  1.00  0.00    -0.032 A 
ATOM      6  C   UNL     1     -47.058  31.893  24.246  1.00  0.00     0.030 A 
ATOM      7  N   UNL     1     -45.963  32.467  24.849  1.00  0.00    -0.357 N 
ATOM      8  C   UNL     1     -46.354  33.387  25.792  1.00  0.00     0.046 A 
ATOM      9  C   UNL     1     -45.586  34.205  26.631  1.00  0.00    -0.033 A 
ATOM     10  H   UNL     1     -48.186  35.765  28.207  1.00  0.00     0.063 H 
ATOM     11  H   UNL     1     -49.499  34.302  26.707  1.00  0.00     0.063 H 
ATOM     12  H   UNL     1     -49.204  32.219  24.572  1.00  0.00     0.065 H 
ATOM     13  H   UNL     1     -45.009  32.248  24.595  1.00  0.00     0.166 HD
ATOM     14  H   UNL     1     -44.501  34.175  26.594  1.00  0.00     0.065 H 
ENDROOT
BRANCH   1  15
ATOM     15  C   UNL     1     -45.484  35.982  28.424  1.00  0.00     0.043 C 
ATOM     16  H   UNL     1     -44.480  35.585  28.601  1.00  0.00     0.054 H 
ATOM     17  H   UNL     1     -45.980  36.062  29.398  1.00  0.00     0.054 H 
BRANCH  15  18
ATOM     18  N   UNL     1     -45.330  37.281  27.819  1.00  0.00    -0.347 N 
ATOM     19  O   UNL     1     -44.742  38.416  29.733  1.00  0.00    -0.268 OA
ATOM     20  C   UNL     1     -45.044  38.410  28.545  1.00  0.00     0.270 C 
ATOM     21  H   UNL     1     -45.676  37.433  26.877  1.00  0.00     0.164 HD
BRANCH  20  22
ATOM     22  C   UNL     1     -45.154  39.667  27.716  1.00  0.00     0.136 A 
ATOM     23  C   UNL     1     -46.377  39.996  27.293  1.00  0.00     0.035 A 
ATOM     24  N   UNL     1     -44.010  40.383  27.443  1.00  0.00    -0.225 NA
ATOM     25  C   UNL     1     -46.528  41.206  26.477  1.00  0.00     0.258 A 
ATOM     26  H   UNL     1     -47.268  39.423  27.513  1.00  0.00     0.071 H 
ATOM     27  C   UNL     1     -44.148  41.449  26.714  1.00  0.00     0.140 A 
ATOM     28  O   UNL     1     -47.653  41.521  26.089  1.00  0.00    -0.269 OA
ATOM     29  N   UNL     1     -45.361  41.906  26.209  1.00  0.00    -0.268 N 
ATOM     30  C   UNL     1     -42.936  42.252  26.386  1.00  0.00    -0.019 A 
ATOM     31  C   UNL     1     -45.425  43.060  25.437  1.00  0.00     0.014 A 
ATOM     32  C   UNL     1     -43.047  43.356  25.638  1.00  0.00    -0.057 A 
ATOM     33  H   UNL     1     -41.986  41.903  26.771  1.00  0.00     0.066 H 
ATOM     34  C   UNL     1     -44.332  43.777  25.147  1.00  0.00    -0.045 A 
ATOM     35  H   UNL     1     -46.406  43.359  25.076  1.00  0.00     0.082 H 
ATOM     36  H   UNL     1     -42.176  43.952  25.387  1.00  0.00     0.062 H 
ATOM     37  H   UNL     1     -44.393  44.676  24.543  1.00  0.00     0.064 H 
ENDBRANCH  20  22
ENDBRANCH  15  18
ENDBRANCH   1  15
BRANCH   6  38
ATOM     38  C   UNL     1     -46.914  30.849  23.194  1.00  0.00     0.036 C 
ATOM     39  H   UNL     1     -47.785  30.184  23.243  1.00  0.00     0.049 H 
ATOM     40  H   UNL     1     -46.903  31.324  22.206  1.00  0.00     0.049 H 
BRANCH  38  41
ATOM     41  N   UNL     1     -45.684  30.094  23.413  1.00  0.00    -0.306 NA
ATOM     42  H   UNL     1     -44.917  30.591  22.953  1.00  0.00     0.123 HD
BRANCH  41  43
ATOM     43  C   UNL     1     -45.774  28.778  22.778  1.00  0.00     0.040 C 
ATOM     44  H   UNL     1     -44.781  28.333  22.641  1.00  0.00     0.050 H 
ATOM     45  H   UNL     1     -46.254  28.857  21.796  1.00  0.00     0.050 H 
BRANCH  43  46
ATOM     46  C   UNL     1     -46.578  27.893  23.672  1.00  0.00     0.073 A 
ATOM     47  C   UNL     1     -47.949  27.830  23.829  1.00  0.00     0.033 A 
ATOM     48  N   UNL     1     -45.953  26.993  24.512  1.00  0.00    -0.232 NA
ATOM     49  N   UNL     1     -48.170  26.872  24.785  1.00  0.00    -0.307 N 
ATOM     50  H   UNL     1     -48.756  28.376  23.363  1.00  0.00     0.084 H 
ATOM     51  C   UNL     1     -46.922  26.391  25.168  1.00  0.00     0.137 A 
ATOM     52  C   UNL     1     -49.371  26.413  25.321  1.00  0.00     0.010 A 
ATOM     53  C   UNL     1     -46.899  25.371  26.163  1.00  0.00    -0.019 A 
ATOM     54  C   UNL     1     -49.344  25.453  26.260  1.00  0.00    -0.045 A 
ATOM     55  H   UNL     1     -50.286  26.857  24.951  1.00  0.00     0.082 H 
ATOM     56  C   UNL     1     -48.056  24.921  26.686  1.00  0.00    -0.057 A 
ATOM     57  H   UNL     1     -45.940  24.979  26.479  1.00  0.00     0.066 H 
ATOM     58  H   UNL     1     -50.250  25.060  26.708  1.00  0.00     0.064 H 
ATOM     59  H   UNL     1     -48.055  24.145  27.445  1.00  0.00     0.062 H 
ENDBRANCH  43  46
ENDBRANCH  41  43
ENDBRANCH  38  41
ENDBRANCH   6  38
TORSDOF 7
ENDMDL
MODEL 4
REMARK VINA RESULT:     -11.2      3.258     12.543
REMARK SMILES O=C(NCc1ccc2cc(CNCc3cn4ccccc4n3)[nH]c2c1)c1cc(=O)n2ccccc2n1
REMARK SMILES IDX 5 1 6 2 7 3 8 4 9 5 10 6 23 7 24 8 25 9 4 15 3 18 1 19 2 20
REMARK SMILES IDX 26 22 27 23 36 24 28 25 35 27 29 28 30 29 34 30 31 31 33 32
REMARK SMILES IDX 32 34 11 38 12 41 13 43 14 46 15 47 22 48 16 49 21 51 17 52
REMARK SMILES IDX 20 53 18 54 19 56
REMARK H PARENT 6 10 7 11 9 12 23 13 25 14 4 16 4 17 3 21 27 26 34 33 31 35
REMARK H PARENT 33 36 32 37 11 39 11 40 12 42 13 44 13 45 15 50 17 55 20 57
REMARK H PARENT 18 58 19 59
REMARK Flexibility Score: inf
ROOT
ATOM      1  C   UNL     1     -47.502  36.064  27.185  1.00  0.00    -0.027 A 
ATOM      2  C   UNL     1     -46.236  35.673  26.728  1.00  0.00    -0.057 A 
ATOM      3  C   UNL     1     -46.047  34.451  26.069  1.00  0.00    -0.052 A 
ATOM      4  C   UNL     1     -47.150  33.600  25.867  1.00  0.00    -0.000 A 
ATOM      5  C   UNL     1     -47.316  32.324  25.259  1.00  0.00    -0.032 A 
ATOM      6  C   UNL     1     -48.647  31.973  25.360  1.00  0.00     0.030 A 
ATOM      7  N   UNL     1     -49.288  33.002  26.009  1.00  0.00    -0.357 N 
ATOM      8  C   UNL     1     -48.400  34.002  26.331  1.00  0.00     0.046 A 
ATOM      9  C   UNL     1     -48.609  35.218  26.995  1.00  0.00    -0.033 A 
ATOM     10  H   UNL     1     -45.377  36.323  26.891  1.00  0.00     0.063 H 
ATOM     11  H   UNL     1     -45.059  34.165  25.724  1.00  0.00     0.063 H 
ATOM     12  H   UNL     1     -46.539  31.730  24.797  1.00  0.00     0.065 H 
ATOM     13  H   UNL     1     -50.273  32.990  26.236  1.00  0.00     0.166 HD
ATOM     14  H   UNL     1     -49.597  35.494  27.350  1.00  0.00     0.065 H 
ENDROOT
BRANCH   1  15
ATOM     15  C   UNL     1     -47.666  37.373  27.916  1.00  0.00     0.043 C 
ATOM     16  H   UNL     1     -47.665  37.209  28.998  1.00  0.00     0.054 H 
ATOM     17  H   UNL     1     -48.625  37.834  27.657  1.00  0.00     0.054 H 
BRANCH  15  18
ATOM     18  N   UNL     1     -46.573  38.263  27.616  1.00  0.00    -0.347 N 
ATOM     19  O   UNL     1     -45.532  38.133  29.665  1.00  0.00    -0.268 OA
ATOM     20  C   UNL     1     -45.633  38.628  28.548  1.00  0.00     0.270 C 
ATOM     21  H   UNL     1     -46.615  38.834  26.779  1.00  0.00     0.164 HD
BRANCH  20  22
ATOM     22  C   UNL     1     -44.732  39.732  28.051  1.00  0.00     0.136 A 
ATOM     23  C   UNL     1     -43.705  40.061  28.837  1.00  0.00     0.035 A 
ATOM     24  N   UNL     1     -45.021  40.330  26.845  1.00  0.00    -0.225 NA
ATOM     25  C   UNL     1     -42.808  41.136  28.396  1.00  0.00     0.258 A 
ATOM     26  H   UNL     1     -43.491  39.584  29.785  1.00  0.00     0.071 H 
ATOM     27  C   UNL     1     -44.229  41.285  26.463  1.00  0.00     0.140 A 
ATOM     28  O   UNL     1     -41.854  41.440  29.111  1.00  0.00    -0.269 OA
ATOM     29  N   UNL     1     -43.123  41.727  27.182  1.00  0.00    -0.268 N 
ATOM     30  C   UNL     1     -44.506  41.968  25.167  1.00  0.00    -0.019 A 
ATOM     31  C   UNL     1     -42.321  42.757  26.702  1.00  0.00     0.014 A 
ATOM     32  C   UNL     1     -43.706  42.955  24.746  1.00  0.00    -0.057 A 
ATOM     33  H   UNL     1     -45.367  41.634  24.600  1.00  0.00     0.066 H 
ATOM     34  C   UNL     1     -42.577  43.364  25.536  1.00  0.00    -0.045 A 
ATOM     35  H   UNL     1     -41.474  43.050  27.316  1.00  0.00     0.082 H 
ATOM     36  H   UNL     1     -43.893  43.465  23.806  1.00  0.00     0.062 H 
ATOM     37  H   UNL     1     -41.945  44.167  25.171  1.00  0.00     0.064 H 
ENDBRANCH  20  22
ENDBRANCH  15  18
ENDBRANCH   1  15
BRANCH   6  38
ATOM     38  C   UNL     1     -49.383  30.768  24.888  1.00  0.00     0.036 C 
ATOM     39  H   UNL     1     -48.819  29.876  25.188  1.00  0.00     0.049 H 
ATOM     40  H   UNL     1     -50.366  30.726  25.370  1.00  0.00     0.049 H 
BRANCH  38  41
ATOM     41  N   UNL     1     -49.525  30.815  23.436  1.00  0.00    -0.306 NA
ATOM     42  H   UNL     1     -50.463  30.483  23.195  1.00  0.00     0.123 HD
BRANCH  41  43
ATOM     43  C   UNL     1     -48.579  29.895  22.801  1.00  0.00     0.040 C 
ATOM     44  H   UNL     1     -47.584  30.349  22.708  1.00  0.00     0.050 H 
ATOM     45  H   UNL     1     -48.926  29.618  21.799  1.00  0.00     0.050 H 
BRANCH  43  46
ATOM     46  C   UNL     1     -48.475  28.681  23.663  1.00  0.00     0.073 A 
ATOM     47  C   UNL     1     -49.484  27.897  24.187  1.00  0.00     0.033 A 
ATOM     48  N   UNL     1     -47.240  28.208  24.060  1.00  0.00    -0.232 NA
ATOM     49  N   UNL     1     -48.857  26.925  24.922  1.00  0.00    -0.307 N 
ATOM     50  H   UNL     1     -50.560  27.957  24.109  1.00  0.00     0.084 H 
ATOM     51  C   UNL     1     -47.490  27.156  24.812  1.00  0.00     0.137 A 
ATOM     52  C   UNL     1     -49.405  25.878  25.660  1.00  0.00     0.010 A 
ATOM     53  C   UNL     1     -46.624  26.258  25.499  1.00  0.00    -0.019 A 
ATOM     54  C   UNL     1     -48.583  25.035  26.308  1.00  0.00    -0.045 A 
ATOM     55  H   UNL     1     -50.483  25.790  25.680  1.00  0.00     0.082 H 
ATOM     56  C   UNL     1     -47.145  25.243  26.215  1.00  0.00    -0.057 A 
ATOM     57  H   UNL     1     -45.554  26.416  25.428  1.00  0.00     0.066 H 
ATOM     58  H   UNL     1     -48.958  24.204  26.896  1.00  0.00     0.064 H 
ATOM     59  H   UNL     1     -46.497  24.550  26.744  1.00  0.00     0.062 H 
ENDBRANCH  43  46
ENDBRANCH  41  43
ENDBRANCH  38  41
ENDBRANCH   6  38
TORSDOF 7
ENDMDL
MODEL 5
REMARK VINA RESULT:     -10.9      1.606      2.125
REMARK SMILES O=C(NCc1ccc2cc(CNCc3cn4ccccc4n3)[nH]c2c1)c1cc(=O)n2ccccc2n1
REMARK SMILES IDX 5 1 6 2 7 3 8 4 9 5 10 6 23 7 24 8 25 9 4 15 3 18 1 19 2 20
REMARK SMILES IDX 26 22 27 23 36 24 28 25 35 27 29 28 30 29 34 30 31 31 33 32
REMARK SMILES IDX 32 34 11 38 12 41 13 43 14 46 15 47 22 48 16 49 21 51 17 52
REMARK SMILES IDX 20 53 18 54 19 56
REMARK H PARENT 6 10 7 11 9 12 23 13 25 14 4 16 4 17 3 21 27 26 34 33 31 35
REMARK H PARENT 33 36 32 37 11 39 11 40 12 42 13 44 13 45 15 50 17 55 20 57
REMARK H PARENT 18 58 19 59
REMARK Flexibility Score: inf
ROOT
ATOM      1  C   UNL     1     -46.464  33.568  25.685  1.00  0.00    -0.027 A 
ATOM      2  C   UNL     1     -46.208  32.882  26.880  1.00  0.00    -0.057 A 
ATOM      3  C   UNL     1     -46.130  33.559  28.103  1.00  0.00    -0.052 A 
ATOM      4  C   UNL     1     -46.309  34.955  28.131  1.00  0.00    -0.000 A 
ATOM      5  C   UNL     1     -46.291  35.935  29.163  1.00  0.00    -0.032 A 
ATOM      6  C   UNL     1     -46.529  37.166  28.587  1.00  0.00     0.030 A 
ATOM      7  N   UNL     1     -46.690  36.956  27.238  1.00  0.00    -0.357 N 
ATOM      8  C   UNL     1     -46.558  35.622  26.933  1.00  0.00     0.046 A 
ATOM      9  C   UNL     1     -46.636  34.963  25.700  1.00  0.00    -0.033 A 
ATOM     10  H   UNL     1     -46.059  31.803  26.864  1.00  0.00     0.063 H 
ATOM     11  H   UNL     1     -45.930  33.010  29.019  1.00  0.00     0.063 H 
ATOM     12  H   UNL     1     -46.124  35.751  30.215  1.00  0.00     0.065 H 
ATOM     13  H   UNL     1     -46.852  37.701  26.573  1.00  0.00     0.166 HD
ATOM     14  H   UNL     1     -46.824  35.517  24.785  1.00  0.00     0.065 H 
ENDROOT
BRANCH   1  15
ATOM     15  C   UNL     1     -46.513  32.812  24.381  1.00  0.00     0.043 C 
ATOM     16  H   UNL     1     -45.518  32.768  23.927  1.00  0.00     0.054 H 
ATOM     17  H   UNL     1     -47.173  33.323  23.671  1.00  0.00     0.054 H 
BRANCH  15  18
ATOM     18  N   UNL     1     -46.946  31.454  24.595  1.00  0.00    -0.347 N 
ATOM     19  O   UNL     1     -47.860  31.115  22.511  1.00  0.00    -0.268 OA
ATOM     20  C   UNL     1     -47.655  30.742  23.660  1.00  0.00     0.270 C 
ATOM     21  H   UNL     1     -46.953  31.080  25.539  1.00  0.00     0.164 HD
BRANCH  20  22
ATOM     22  C   UNL     1     -48.176  29.436  24.208  1.00  0.00     0.136 A 
ATOM     23  C   UNL     1     -49.503  29.300  24.261  1.00  0.00     0.035 A 
ATOM     24  N   UNL     1     -47.272  28.484  24.622  1.00  0.00    -0.225 NA
ATOM     25  C   UNL     1     -50.053  28.049  24.795  1.00  0.00     0.258 A 
ATOM     26  H   UNL     1     -50.203  30.058  23.933  1.00  0.00     0.071 H 
ATOM     27  C   UNL     1     -47.764  27.381  25.101  1.00  0.00     0.140 A 
ATOM     28  O   UNL     1     -51.275  27.912  24.839  1.00  0.00    -0.269 OA
ATOM     29  N   UNL     1     -49.123  27.108  25.212  1.00  0.00    -0.268 N 
ATOM     30  C   UNL     1     -46.823  26.324  25.569  1.00  0.00    -0.019 A 
ATOM     31  C   UNL     1     -49.570  25.899  25.735  1.00  0.00     0.014 A 
ATOM     32  C   UNL     1     -47.301  25.176  26.067  1.00  0.00    -0.057 A 
ATOM     33  H   UNL     1     -45.763  26.528  25.491  1.00  0.00     0.066 H 
ATOM     34  C   UNL     1     -48.719  24.954  26.152  1.00  0.00    -0.045 A 
ATOM     35  H   UNL     1     -50.646  25.753  25.791  1.00  0.00     0.082 H 
ATOM     36  H   UNL     1     -46.632  24.396  26.414  1.00  0.00     0.062 H 
ATOM     37  H   UNL     1     -49.078  24.015  26.559  1.00  0.00     0.064 H 
ENDBRANCH  20  22
ENDBRANCH  15  18
ENDBRANCH   1  15
BRANCH   6  38
ATOM     38  C   UNL     1     -46.637  38.525  29.186  1.00  0.00     0.036 C 
ATOM     39  H   UNL     1     -47.696  38.739  29.373  1.00  0.00     0.049 H 
ATOM     40  H   UNL     1     -46.110  38.545  30.147  1.00  0.00     0.049 H 
BRANCH  38  41
ATOM     41  N   UNL     1     -46.072  39.513  28.271  1.00  0.00    -0.306 NA
ATOM     42  H   UNL     1     -46.259  39.207  27.313  1.00  0.00     0.123 HD
BRANCH  41  43
ATOM     43  C   UNL     1     -44.616  39.568  28.418  1.00  0.00     0.040 C 
ATOM     44  H   UNL     1     -44.156  38.596  28.199  1.00  0.00     0.050 H 
ATOM     45  H   UNL     1     -44.343  39.856  29.440  1.00  0.00     0.050 H 
BRANCH  43  46
ATOM     46  C   UNL     1     -44.098  40.575  27.445  1.00  0.00     0.073 A 
ATOM     47  C   UNL     1     -42.929  41.310  27.492  1.00  0.00     0.033 A 
ATOM     48  N   UNL     1     -44.828  40.900  26.318  1.00  0.00    -0.232 NA
ATOM     49  N   UNL     1     -42.941  42.102  26.373  1.00  0.00    -0.307 N 
ATOM     50  H   UNL     1     -42.123  41.340  28.211  1.00  0.00     0.084 H 
ATOM     51  C   UNL     1     -44.119  41.814  25.690  1.00  0.00     0.137 A 
ATOM     52  C   UNL     1     -42.004  43.034  25.935  1.00  0.00     0.010 A 
ATOM     53  C   UNL     1     -44.353  42.523  24.477  1.00  0.00    -0.019 A 
ATOM     54  C   UNL     1     -42.230  43.701  24.791  1.00  0.00    -0.045 A 
ATOM     55  H   UNL     1     -41.122  43.180  26.544  1.00  0.00     0.082 H 
ATOM     56  C   UNL     1     -43.451  43.426  24.045  1.00  0.00    -0.057 A 
ATOM     57  H   UNL     1     -45.262  42.316  23.925  1.00  0.00     0.066 H 
ATOM     58  H   UNL     1     -41.532  44.436  24.405  1.00  0.00     0.064 H 
ATOM     59  H   UNL     1     -43.615  43.974  23.123  1.00  0.00     0.062 H 
ENDBRANCH  43  46
ENDBRANCH  41  43
ENDBRANCH  38  41
ENDBRANCH   6  38
TORSDOF 7
ENDMDL
MODEL 6
REMARK VINA RESULT:     -10.9      3.046     12.004
REMARK SMILES O=C(NCc1ccc2cc(CNCc3cn4ccccc4n3)[nH]c2c1)c1cc(=O)n2ccccc2n1
REMARK SMILES IDX 5 1 6 2 7 3 8 4 9 5 10 6 23 7 24 8 25 9 4 15 3 18 1 19 2 20
REMARK SMILES IDX 26 22 27 23 36 24 28 25 35 27 29 28 30 29 34 30 31 31 33 32
REMARK SMILES IDX 32 34 11 38 12 41 13 43 14 46 15 47 22 48 16 49 21 51 17 52
REMARK SMILES IDX 20 53 18 54 19 56
REMARK H PARENT 6 10 7 11 9 12 23 13 25 14 4 16 4 17 3 21 27 26 34 33 31 35
REMARK H PARENT 33 36 32 37 11 39 11 40 12 42 13 44 13 45 15 50 17 55 20 57
REMARK H PARENT 18 58 19 59
REMARK Flexibility Score: inf
ROOT
ATOM      1  C   UNL     1     -48.399  35.893  27.266  1.00  0.00    -0.027 A 
ATOM      2  C   UNL     1     -49.530  35.068  27.198  1.00  0.00    -0.057 A 
ATOM      3  C   UNL     1     -49.511  33.868  26.477  1.00  0.00    -0.052 A 
ATOM      4  C   UNL     1     -48.334  33.487  25.806  1.00  0.00    -0.000 A 
ATOM      5  C   UNL     1     -47.972  32.371  24.999  1.00  0.00    -0.032 A 
ATOM      6  C   UNL     1     -46.662  32.539  24.601  1.00  0.00     0.030 A 
ATOM      7  N   UNL     1     -46.223  33.723  25.145  1.00  0.00    -0.357 N 
ATOM      8  C   UNL     1     -47.221  34.321  25.879  1.00  0.00     0.046 A 
ATOM      9  C   UNL     1     -47.221  35.526  26.592  1.00  0.00    -0.033 A 
ATOM     10  H   UNL     1     -50.447  35.363  27.708  1.00  0.00     0.063 H 
ATOM     11  H   UNL     1     -50.397  33.242  26.436  1.00  0.00     0.063 H 
ATOM     12  H   UNL     1     -48.608  31.535  24.743  1.00  0.00     0.065 H 
ATOM     13  H   UNL     1     -45.298  34.100  24.989  1.00  0.00     0.166 HD
ATOM     14  H   UNL     1     -46.337  36.155  26.620  1.00  0.00     0.065 H 
ENDROOT
BRANCH   1  15
ATOM     15  C   UNL     1     -48.463  37.194  28.027  1.00  0.00     0.043 C 
ATOM     16  H   UNL     1     -48.651  37.006  29.089  1.00  0.00     0.054 H 
ATOM     17  H   UNL     1     -49.289  37.811  27.655  1.00  0.00     0.054 H 
BRANCH  15  18
ATOM     18  N   UNL     1     -47.212  37.902  27.931  1.00  0.00    -0.347 N 
ATOM     19  O   UNL     1     -46.346  37.222  29.952  1.00  0.00    -0.268 OA
ATOM     20  C   UNL     1     -46.285  37.916  28.943  1.00  0.00     0.270 C 
ATOM     21  H   UNL     1     -47.097  38.609  27.213  1.00  0.00     0.164 HD
BRANCH  20  22
ATOM     22  C   UNL     1     -45.171  38.901  28.687  1.00  0.00     0.136 A 
ATOM     23  C   UNL     1     -44.229  38.993  29.628  1.00  0.00     0.035 A 
ATOM     24  N   UNL     1     -45.194  39.639  27.525  1.00  0.00    -0.225 NA
ATOM     25  C   UNL     1     -43.131  39.945  29.423  1.00  0.00     0.258 A 
ATOM     26  H   UNL     1     -44.224  38.408  30.539  1.00  0.00     0.071 H 
ATOM     27  C   UNL     1     -44.225  40.486  27.351  1.00  0.00     0.140 A 
ATOM     28  O   UNL     1     -42.254  40.031  30.282  1.00  0.00    -0.269 OA
ATOM     29  N   UNL     1     -43.181  40.682  28.249  1.00  0.00    -0.268 N 
ATOM     30  C   UNL     1     -44.212  41.313  26.112  1.00  0.00    -0.019 A 
ATOM     31  C   UNL     1     -42.177  41.609  27.988  1.00  0.00     0.014 A 
ATOM     32  C   UNL     1     -43.225  42.193  25.904  1.00  0.00    -0.057 A 
ATOM     33  H   UNL     1     -45.023  41.171  25.408  1.00  0.00     0.066 H 
ATOM     34  C   UNL     1     -42.172  42.348  26.871  1.00  0.00    -0.045 A 
ATOM     35  H   UNL     1     -41.392  41.709  28.734  1.00  0.00     0.082 H 
ATOM     36  H   UNL     1     -43.200  42.806  25.009  1.00  0.00     0.062 H 
ATOM     37  H   UNL     1     -41.384  43.068  26.678  1.00  0.00     0.064 H 
ENDBRANCH  20  22
ENDBRANCH  15  18
ENDBRANCH   1  15
BRANCH   6  38
ATOM     38  C   UNL     1     -45.771  31.683  23.770  1.00  0.00     0.036 C 
ATOM     39  H   UNL     1     -44.865  32.253  23.530  1.00  0.00     0.049 H 
ATOM     40  H   UNL     1     -45.474  30.798  24.344  1.00  0.00     0.049 H 
BRANCH  38  41
ATOM     41  N   UNL     1     -46.465  31.291  22.547  1.00  0.00    -0.306 NA
ATOM     42  H   UNL     1     -47.453  31.145  22.771  1.00  0.00     0.123 HD
BRANCH  41  43
ATOM     43  C   UNL     1     -45.951  30.010  22.058  1.00  0.00     0.040 C 
ATOM     44  H   UNL     1     -44.855  30.008  22.021  1.00  0.00     0.050 H 
ATOM     45  H   UNL     1     -46.330  29.803  21.051  1.00  0.00     0.050 H 
BRANCH  43  46
ATOM     46  C   UNL     1     -46.402  28.947  23.005  1.00  0.00     0.073 A 
ATOM     47  C   UNL     1     -45.665  27.941  23.598  1.00  0.00     0.033 A 
ATOM     48  N   UNL     1     -47.727  28.864  23.385  1.00  0.00    -0.232 NA
ATOM     49  N   UNL     1     -46.554  27.225  24.357  1.00  0.00    -0.307 N 
ATOM     50  H   UNL     1     -44.619  27.678  23.536  1.00  0.00     0.084 H 
ATOM     51  C   UNL     1     -47.797  27.829  24.195  1.00  0.00     0.137 A 
ATOM     52  C   UNL     1     -46.339  26.107  25.159  1.00  0.00     0.010 A 
ATOM     53  C   UNL     1     -48.893  27.254  24.900  1.00  0.00    -0.019 A 
ATOM     54  C   UNL     1     -47.376  25.567  25.821  1.00  0.00    -0.045 A 
ATOM     55  H   UNL     1     -45.331  25.717  25.214  1.00  0.00     0.082 H 
ATOM     56  C   UNL     1     -48.694  26.172  25.679  1.00  0.00    -0.057 A 
ATOM     57  H   UNL     1     -49.872  27.705  24.792  1.00  0.00     0.066 H 
ATOM     58  H   UNL     1     -47.262  24.697  26.459  1.00  0.00     0.064 H 
ATOM     59  H   UNL     1     -49.519  25.722  26.222  1.00  0.00     0.062 H 
ENDBRANCH  43  46
ENDBRANCH  41  43
ENDBRANCH  38  41
ENDBRANCH   6  38
TORSDOF 7
ENDMDL
MODEL 7
REMARK VINA RESULT:     -10.6      3.659     11.990
REMARK SMILES O=C(NCc1ccc2cc(CNCc3cn4ccccc4n3)[nH]c2c1)c1cc(=O)n2ccccc2n1
REMARK SMILES IDX 5 1 6 2 7 3 8 4 9 5 10 6 23 7 24 8 25 9 4 15 3 18 1 19 2 20
REMARK SMILES IDX 26 22 27 23 36 24 28 25 35 27 29 28 30 29 34 30 31 31 33 32
REMARK SMILES IDX 32 34 11 38 12 41 13 43 14 46 15 47 22 48 16 49 21 51 17 52
REMARK SMILES IDX 20 53 18 54 19 56
REMARK H PARENT 6 10 7 11 9 12 23 13 25 14 4 16 4 17 3 21 27 26 34 33 31 35
REMARK H PARENT 33 36 32 37 11 39 11 40 12 42 13 44 13 45 15 50 17 55 20 57
REMARK H PARENT 18 58 19 59
REMARK Flexibility Score: inf
ROOT
ATOM      1  C   UNL     1     -47.217  36.241  27.402  1.00  0.00    -0.027 A 
ATOM      2  C   UNL     1     -45.927  35.731  27.203  1.00  0.00    -0.057 A 
ATOM      3  C   UNL     1     -45.725  34.461  26.649  1.00  0.00    -0.052 A 
ATOM      4  C   UNL     1     -46.841  33.682  26.289  1.00  0.00    -0.000 A 
ATOM      5  C   UNL     1     -47.001  32.386  25.723  1.00  0.00    -0.032 A 
ATOM      6  C   UNL     1     -48.353  32.139  25.596  1.00  0.00     0.030 A 
ATOM      7  N   UNL     1     -49.012  33.251  26.068  1.00  0.00    -0.357 N 
ATOM      8  C   UNL     1     -48.116  34.201  26.498  1.00  0.00     0.046 A 
ATOM      9  C   UNL     1     -48.338  35.468  27.054  1.00  0.00    -0.033 A 
ATOM     10  H   UNL     1     -45.059  36.326  27.488  1.00  0.00     0.063 H 
ATOM     11  H   UNL     1     -44.718  34.083  26.503  1.00  0.00     0.063 H 
ATOM     12  H   UNL     1     -46.206  31.710  25.439  1.00  0.00     0.065 H 
ATOM     13  H   UNL     1     -50.019  33.324  26.112  1.00  0.00     0.166 HD
ATOM     14  H   UNL     1     -49.347  35.837  27.210  1.00  0.00     0.065 H 
ENDROOT
BRANCH   1  15
ATOM     15  C   UNL     1     -47.399  37.601  28.028  1.00  0.00     0.043 C 
ATOM     16  H   UNL     1     -47.374  37.526  29.120  1.00  0.00     0.054 H 
ATOM     17  H   UNL     1     -48.374  38.017  27.753  1.00  0.00     0.054 H 
BRANCH  15  18
ATOM     18  N   UNL     1     -46.334  38.489  27.635  1.00  0.00    -0.347 N 
ATOM     19  O   UNL     1     -45.186  38.456  29.629  1.00  0.00    -0.268 OA
ATOM     20  C   UNL     1     -45.352  38.903  28.500  1.00  0.00     0.270 C 
ATOM     21  H   UNL     1     -46.427  39.024  26.778  1.00  0.00     0.164 HD
BRANCH  20  22
ATOM     22  C   UNL     1     -44.492  39.994  27.911  1.00  0.00     0.136 A 
ATOM     23  C   UNL     1     -43.443  40.383  28.639  1.00  0.00     0.035 A 
ATOM     24  N   UNL     1     -44.837  40.521  26.686  1.00  0.00    -0.225 NA
ATOM     25  C   UNL     1     -42.584  41.448  28.107  1.00  0.00     0.258 A 
ATOM     26  H   UNL     1     -43.184  39.962  29.601  1.00  0.00     0.071 H 
ATOM     27  C   UNL     1     -44.078  41.468  26.224  1.00  0.00     0.140 A 
ATOM     28  O   UNL     1     -41.610  41.807  28.768  1.00  0.00    -0.269 OA
ATOM     29  N   UNL     1     -42.956  41.968  26.876  1.00  0.00    -0.268 N 
ATOM     30  C   UNL     1     -44.417  42.074  24.905  1.00  0.00    -0.019 A 
ATOM     31  C   UNL     1     -42.193  42.983  26.311  1.00  0.00     0.014 A 
ATOM     32  C   UNL     1     -43.653  43.051  24.401  1.00  0.00    -0.057 A 
ATOM     33  H   UNL     1     -45.291  41.695  24.390  1.00  0.00     0.066 H 
ATOM     34  C   UNL     1     -42.503  43.522  25.125  1.00  0.00    -0.045 A 
ATOM     35  H   UNL     1     -41.329  43.324  26.876  1.00  0.00     0.082 H 
ATOM     36  H   UNL     1     -43.885  43.506  23.444  1.00  0.00     0.062 H 
ATOM     37  H   UNL     1     -41.901  44.315  24.694  1.00  0.00     0.064 H 
ENDBRANCH  20  22
ENDBRANCH  15  18
ENDBRANCH   1  15
BRANCH   6  38
ATOM     38  C   UNL     1     -49.090  30.964  25.056  1.00  0.00     0.036 C 
ATOM     39  H   UNL     1     -50.164  31.129  25.204  1.00  0.00     0.049 H 
ATOM     40  H   UNL     1     -48.904  30.879  23.979  1.00  0.00     0.049 H 
BRANCH  38  41
ATOM     41  N   UNL     1     -48.661  29.752  25.748  1.00  0.00    -0.306 NA
ATOM     42  H   UNL     1     -47.967  30.014  26.453  1.00  0.00     0.123 HD
BRANCH  41  43
ATOM     43  C   UNL     1     -47.990  28.844  24.816  1.00  0.00     0.040 C 
ATOM     44  H   UNL     1     -48.575  27.929  24.660  1.00  0.00     0.050 H 
ATOM     45  H   UNL     1     -47.003  28.561  25.198  1.00  0.00     0.050 H 
BRANCH  43  46
ATOM     46  C   UNL     1     -47.850  29.553  23.509  1.00  0.00     0.073 A 
ATOM     47  C   UNL     1     -48.804  29.782  22.537  1.00  0.00     0.033 A 
ATOM     48  N   UNL     1     -46.630  30.072  23.121  1.00  0.00    -0.232 NA
ATOM     49  N   UNL     1     -48.157  30.453  21.532  1.00  0.00    -0.307 N 
ATOM     50  H   UNL     1     -49.850  29.521  22.476  1.00  0.00     0.084 H 
ATOM     51  C   UNL     1     -46.835  30.607  21.936  1.00  0.00     0.137 A 
ATOM     52  C   UNL     1     -48.651  30.923  20.317  1.00  0.00     0.010 A 
ATOM     53  C   UNL     1     -45.959  31.288  21.043  1.00  0.00    -0.019 A 
ATOM     54  C   UNL     1     -47.821  31.563  19.477  1.00  0.00    -0.045 A 
ATOM     55  H   UNL     1     -49.697  30.749  20.101  1.00  0.00     0.082 H 
ATOM     56  C   UNL     1     -46.429  31.746  19.865  1.00  0.00    -0.057 A 
ATOM     57  H   UNL     1     -44.925  31.421  21.335  1.00  0.00     0.066 H 
ATOM     58  H   UNL     1     -48.155  31.949  18.519  1.00  0.00     0.064 H 
ATOM     59  H   UNL     1     -45.773  32.266  19.174  1.00  0.00     0.062 H 
ENDBRANCH  43  46
ENDBRANCH  41  43
ENDBRANCH  38  41
ENDBRANCH   6  38
TORSDOF 7
ENDMDL
