MODEL 1
REMARK VINA RESULT:      -9.7      0.000      0.000
REMARK SMILES COc1cnc(C#N)c(-c2cn(Cc3ccc4cc(CNCC56CC(C5)C6)[nH]c4c3)nn2)c1
REMARK SMILES IDX 14 1 15 2 16 3 17 4 18 5 19 6 28 7 29 8 30 9 13 15 12 18
REMARK SMILES IDX 10 19 11 20 32 21 31 23 9 24 3 25 4 26 33 27 5 28 6 31 2 32
REMARK SMILES IDX 1 33 7 37 8 38 20 39 21 42 22 44 23 47 24 48 26 49 27 50
REMARK SMILES IDX 25 51
REMARK H PARENT 15 10 16 11 18 12 28 13 30 14 13 16 13 17 11 22 4 29 33 30
REMARK H PARENT 1 34 1 35 1 36 20 40 20 41 21 43 22 45 22 46 24 52 24 53 26 54
REMARK H PARENT 26 55 27 56 27 57 25 58
REMARK Flexibility Score: inf
ROOT
ATOM      1  C   UNL     1     -48.002  35.099  26.832  1.00  0.00    -0.024 A 
ATOM      2  C   UNL     1     -46.671  35.140  26.394  1.00  0.00    -0.056 A 
ATOM      3  C   UNL     1     -46.142  34.124  25.589  1.00  0.00    -0.052 A 
ATOM      4  C   UNL     1     -46.961  33.044  25.212  1.00  0.00    -0.000 A 
ATOM      5  C   UNL     1     -46.759  31.878  24.422  1.00  0.00    -0.032 A 
ATOM      6  C   UNL     1     -47.944  31.169  24.398  1.00  0.00     0.030 A 
ATOM      7  N   UNL     1     -48.851  31.872  25.155  1.00  0.00    -0.357 N 
ATOM      8  C   UNL     1     -48.281  33.018  25.657  1.00  0.00     0.046 A 
ATOM      9  C   UNL     1     -48.831  34.023  26.463  1.00  0.00    -0.033 A 
ATOM     10  H   UNL     1     -46.028  35.973  26.673  1.00  0.00     0.063 H 
ATOM     11  H   UNL     1     -45.109  34.173  25.256  1.00  0.00     0.063 H 
ATOM     12  H   UNL     1     -45.842  31.592  23.926  1.00  0.00     0.065 H 
ATOM     13  H   UNL     1     -49.813  31.587  25.282  1.00  0.00     0.166 HD
ATOM     14  H   UNL     1     -49.866  33.967  26.786  1.00  0.00     0.065 H 
ENDROOT
BRANCH   1  15
ATOM     15  C   UNL     1     -48.552  36.214  27.689  1.00  0.00     0.068 C 
ATOM     16  H   UNL     1     -48.915  35.818  28.644  1.00  0.00     0.057 H 
ATOM     17  H   UNL     1     -49.394  36.719  27.202  1.00  0.00     0.057 H 
BRANCH  15  18
ATOM     18  N   UNL     1     -47.546  37.226  27.955  1.00  0.00    -0.247 N 
ATOM     19  C   UNL     1     -46.240  38.947  27.915  1.00  0.00     0.116 A 
ATOM     20  C   UNL     1     -47.176  38.276  27.162  1.00  0.00     0.054 A 
ATOM     21  N   UNL     1     -46.061  38.284  29.103  1.00  0.00    -0.130 NA
ATOM     22  H   UNL     1     -47.592  38.420  26.176  1.00  0.00     0.086 H 
ATOM     23  N   UNL     1     -46.876  37.238  29.123  1.00  0.00    -0.066 NA
BRANCH  19  24
ATOM     24  C   UNL     1     -45.486  40.130  27.552  1.00  0.00     0.044 A 
ATOM     25  C   UNL     1     -43.344  41.283  27.550  1.00  0.00     0.137 A 
ATOM     26  C   UNL     1     -43.981  42.333  26.903  1.00  0.00     0.070 A 
ATOM     27  C   UNL     1     -44.117  40.171  27.876  1.00  0.00    -0.006 A 
ATOM     28  N   UNL     1     -45.295  42.348  26.579  1.00  0.00    -0.241 NA
ATOM     29  H   UNL     1     -43.427  43.225  26.620  1.00  0.00     0.088 H 
ATOM     30  H   UNL     1     -43.677  39.314  28.381  1.00  0.00     0.067 H 
ATOM     31  C   UNL     1     -46.027  41.251  26.915  1.00  0.00     0.150 A 
BRANCH  25  32
ATOM     32  O   UNL     1     -42.014  41.450  27.799  1.00  0.00    -0.495 OA
BRANCH  32  33
ATOM     33  C   UNL     1     -41.576  41.229  29.135  1.00  0.00     0.078 C 
ATOM     34  H   UNL     1     -41.217  40.203  29.267  1.00  0.00     0.067 H 
ATOM     35  H   UNL     1     -40.811  41.956  29.424  1.00  0.00     0.067 H 
ATOM     36  H   UNL     1     -42.437  41.369  29.796  1.00  0.00     0.067 H 
ENDBRANCH  32  33
ENDBRANCH  25  32
BRANCH  31  37
ATOM     37  C   UNL     1     -47.423  41.362  26.582  1.00  0.00     0.120 C 
ATOM     38  N   UNL     1     -48.555  41.418  26.325  1.00  0.00    -0.191 NA
ENDBRANCH  31  37
ENDBRANCH  19  24
ENDBRANCH  15  18
ENDBRANCH   1  15
BRANCH   6  39
ATOM     39  C   UNL     1     -48.308  29.882  23.746  1.00  0.00     0.036 C 
ATOM     40  H   UNL     1     -47.977  29.911  22.701  1.00  0.00     0.049 H 
ATOM     41  H   UNL     1     -49.398  29.759  23.754  1.00  0.00     0.049 H 
BRANCH  39  42
ATOM     42  N   UNL     1     -47.662  28.783  24.459  1.00  0.00    -0.311 NA
ATOM     43  H   UNL     1     -47.069  29.190  25.185  1.00  0.00     0.123 HD
BRANCH  42  44
ATOM     44  C   UNL     1     -48.656  27.914  25.088  1.00  0.00     0.001 C 
ATOM     45  H   UNL     1     -49.254  28.484  25.809  1.00  0.00     0.043 H 
ATOM     46  H   UNL     1     -49.341  27.521  24.328  1.00  0.00     0.043 H 
BRANCH  44  47
ATOM     47  C   UNL     1     -47.974  26.785  25.774  1.00  0.00    -0.016 C 
ATOM     48  C   UNL     1     -48.482  25.316  26.061  1.00  0.00    -0.043 C 
ATOM     49  C   UNL     1     -46.630  26.075  25.339  1.00  0.00    -0.043 C 
ATOM     50  C   UNL     1     -47.368  26.706  27.232  1.00  0.00    -0.043 C 
ATOM     51  C   UNL     1     -47.026  25.296  26.640  1.00  0.00    -0.040 C 
ATOM     52  H   UNL     1     -49.300  25.207  26.780  1.00  0.00     0.028 H 
ATOM     53  H   UNL     1     -48.679  24.681  25.192  1.00  0.00     0.028 H 
ATOM     54  H   UNL     1     -45.716  26.676  25.380  1.00  0.00     0.028 H 
ATOM     55  H   UNL     1     -46.648  25.513  24.400  1.00  0.00     0.028 H 
ATOM     56  H   UNL     1     -46.525  27.369  27.456  1.00  0.00     0.028 H 
ATOM     57  H   UNL     1     -48.078  26.733  28.066  1.00  0.00     0.028 H 
ATOM     58  H   UNL     1     -46.505  24.480  27.114  1.00  0.00     0.030 H 
ENDBRANCH  44  47
ENDBRANCH  42  44
ENDBRANCH  39  42
ENDBRANCH   6  39
TORSDOF 10
ENDMDL
MODEL 2
REMARK VINA RESULT:      -9.7      1.625      2.553
REMARK SMILES COc1cnc(C#N)c(-c2cn(Cc3ccc4cc(CNCC56CC(C5)C6)[nH]c4c3)nn2)c1
REMARK SMILES IDX 14 1 15 2 16 3 17 4 18 5 19 6 28 7 29 8 30 9 13 15 12 18
REMARK SMILES IDX 10 19 11 20 32 21 31 23 9 24 3 25 4 26 33 27 5 28 6 31 2 32
REMARK SMILES IDX 1 33 7 37 8 38 20 39 21 42 22 44 23 47 24 48 26 49 27 50
REMARK SMILES IDX 25 51
REMARK H PARENT 15 10 16 11 18 12 28 13 30 14 13 16 13 17 11 22 4 29 33 30
REMARK H PARENT 1 34 1 35 1 36 20 40 20 41 21 43 22 45 22 46 24 52 24 53 26 54
REMARK H PARENT 26 55 27 56 27 57 25 58
REMARK Flexibility Score: inf
ROOT
ATOM      1  C   UNL     1     -47.704  36.023  27.091  1.00  0.00    -0.024 A 
ATOM      2  C   UNL     1     -46.405  35.729  26.655  1.00  0.00    -0.056 A 
ATOM      3  C   UNL     1     -46.101  34.496  26.063  1.00  0.00    -0.052 A 
ATOM      4  C   UNL     1     -47.119  33.539  25.902  1.00  0.00    -0.000 A 
ATOM      5  C   UNL     1     -47.164  32.226  25.354  1.00  0.00    -0.032 A 
ATOM      6  C   UNL     1     -48.459  31.762  25.466  1.00  0.00     0.030 A 
ATOM      7  N   UNL     1     -49.194  32.755  26.070  1.00  0.00    -0.357 N 
ATOM      8  C   UNL     1     -48.404  33.847  26.342  1.00  0.00     0.046 A 
ATOM      9  C   UNL     1     -48.730  35.073  26.936  1.00  0.00    -0.033 A 
ATOM     10  H   UNL     1     -45.609  36.463  26.767  1.00  0.00     0.063 H 
ATOM     11  H   UNL     1     -45.089  34.285  25.729  1.00  0.00     0.063 H 
ATOM     12  H   UNL     1     -46.333  31.682  24.924  1.00  0.00     0.065 H 
ATOM     13  H   UNL     1     -50.187  32.685  26.249  1.00  0.00     0.166 HD
ATOM     14  H   UNL     1     -49.746  35.275  27.262  1.00  0.00     0.065 H 
ENDROOT
BRANCH   1  15
ATOM     15  C   UNL     1     -48.008  37.365  27.713  1.00  0.00     0.068 C 
ATOM     16  H   UNL     1     -48.428  37.233  28.716  1.00  0.00     0.057 H 
ATOM     17  H   UNL     1     -48.740  37.928  27.122  1.00  0.00     0.057 H 
BRANCH  15  18
ATOM     18  N   UNL     1     -46.817  38.189  27.810  1.00  0.00    -0.247 N 
ATOM     19  C   UNL     1     -45.264  39.669  27.555  1.00  0.00     0.116 A 
ATOM     20  C   UNL     1     -46.408  39.183  26.967  1.00  0.00     0.054 A 
ATOM     21  N   UNL     1     -45.010  38.955  28.699  1.00  0.00    -0.130 NA
ATOM     22  H   UNL     1     -46.947  39.420  26.061  1.00  0.00     0.086 H 
ATOM     23  N   UNL     1     -45.975  38.059  28.853  1.00  0.00    -0.066 NA
BRANCH  19  24
ATOM     24  C   UNL     1     -44.390  40.720  27.072  1.00  0.00     0.044 A 
ATOM     25  C   UNL     1     -43.842  42.281  25.289  1.00  0.00     0.137 A 
ATOM     26  C   UNL     1     -42.784  42.712  26.078  1.00  0.00     0.070 A 
ATOM     27  C   UNL     1     -44.649  41.269  25.802  1.00  0.00    -0.006 A 
ATOM     28  N   UNL     1     -42.486  42.211  27.299  1.00  0.00    -0.241 NA
ATOM     29  H   UNL     1     -42.123  43.503  25.730  1.00  0.00     0.088 H 
ATOM     30  H   UNL     1     -45.495  40.887  25.235  1.00  0.00     0.067 H 
ATOM     31  C   UNL     1     -43.288  41.219  27.773  1.00  0.00     0.150 A 
BRANCH  25  32
ATOM     32  O   UNL     1     -43.983  42.900  24.083  1.00  0.00    -0.495 OA
BRANCH  32  33
ATOM     33  C   UNL     1     -44.946  43.945  24.003  1.00  0.00     0.078 C 
ATOM     34  H   UNL     1     -44.762  44.585  23.134  1.00  0.00     0.067 H 
ATOM     35  H   UNL     1     -45.964  43.542  23.990  1.00  0.00     0.067 H 
ATOM     36  H   UNL     1     -44.842  44.563  24.901  1.00  0.00     0.067 H 
ENDBRANCH  32  33
ENDBRANCH  25  32
BRANCH  31  37
ATOM     37  C   UNL     1     -42.878  40.706  29.053  1.00  0.00     0.120 C 
ATOM     38  N   UNL     1     -42.566  40.318  30.104  1.00  0.00    -0.191 NA
ENDBRANCH  31  37
ENDBRANCH  19  24
ENDBRANCH  15  18
ENDBRANCH   1  15
BRANCH   6  39
ATOM     39  C   UNL     1     -49.078  30.466  25.076  1.00  0.00     0.036 C 
ATOM     40  H   UNL     1     -49.076  30.390  23.981  1.00  0.00     0.049 H 
ATOM     41  H   UNL     1     -50.121  30.436  25.416  1.00  0.00     0.049 H 
BRANCH  39  42
ATOM     42  N   UNL     1     -48.313  29.371  25.667  1.00  0.00    -0.311 NA
ATOM     43  H   UNL     1     -48.748  29.136  26.562  1.00  0.00     0.123 HD
BRANCH  42  44
ATOM     44  C   UNL     1     -48.338  28.191  24.802  1.00  0.00     0.001 C 
ATOM     45  H   UNL     1     -49.346  28.037  24.402  1.00  0.00     0.043 H 
ATOM     46  H   UNL     1     -47.663  28.340  23.952  1.00  0.00     0.043 H 
BRANCH  44  47
ATOM     47  C   UNL     1     -47.908  26.995  25.574  1.00  0.00    -0.016 C 
ATOM     48  C   UNL     1     -46.609  26.107  25.428  1.00  0.00    -0.043 C 
ATOM     49  C   UNL     1     -47.608  26.914  27.124  1.00  0.00    -0.043 C 
ATOM     50  C   UNL     1     -48.650  25.617  25.797  1.00  0.00    -0.043 C 
ATOM     51  C   UNL     1     -47.343  25.446  26.644  1.00  0.00    -0.040 C 
ATOM     52  H   UNL     1     -46.519  25.505  24.518  1.00  0.00     0.028 H 
ATOM     53  H   UNL     1     -45.650  26.594  25.633  1.00  0.00     0.028 H 
ATOM     54  H   UNL     1     -48.455  27.069  27.800  1.00  0.00     0.028 H 
ATOM     55  H   UNL     1     -46.747  27.479  27.492  1.00  0.00     0.028 H 
ATOM     56  H   UNL     1     -49.598  25.646  26.346  1.00  0.00     0.028 H 
ATOM     57  H   UNL     1     -48.761  24.966  24.923  1.00  0.00     0.028 H 
ATOM     58  H   UNL     1     -47.033  24.598  27.233  1.00  0.00     0.030 H 
ENDBRANCH  44  47
ENDBRANCH  42  44
ENDBRANCH  39  42
ENDBRANCH   6  39
TORSDOF 10
ENDMDL
MODEL 3
REMARK VINA RESULT:      -9.4      2.152      3.691
REMARK SMILES COc1cnc(C#N)c(-c2cn(Cc3ccc4cc(CNCC56CC(C5)C6)[nH]c4c3)nn2)c1
REMARK SMILES IDX 14 1 15 2 16 3 17 4 18 5 19 6 28 7 29 8 30 9 13 15 12 18
REMARK SMILES IDX 10 19 11 20 32 21 31 23 9 24 3 25 4 26 33 27 5 28 6 31 2 32
REMARK SMILES IDX 1 33 7 37 8 38 20 39 21 42 22 44 23 47 24 48 26 49 27 50
REMARK SMILES IDX 25 51
REMARK H PARENT 15 10 16 11 18 12 28 13 30 14 13 16 13 17 11 22 4 29 33 30
REMARK H PARENT 1 34 1 35 1 36 20 40 20 41 21 43 22 45 22 46 24 52 24 53 26 54
REMARK H PARENT 26 55 27 56 27 57 25 58
REMARK Flexibility Score: inf
ROOT
ATOM      1  C   UNL     1     -46.553  36.892  28.255  1.00  0.00    -0.024 A 
ATOM      2  C   UNL     1     -47.945  36.781  28.135  1.00  0.00    -0.056 A 
ATOM      3  C   UNL     1     -48.527  35.767  27.362  1.00  0.00    -0.052 A 
ATOM      4  C   UNL     1     -47.698  34.845  26.697  1.00  0.00    -0.000 A 
ATOM      5  C   UNL     1     -47.942  33.722  25.858  1.00  0.00    -0.032 A 
ATOM      6  C   UNL     1     -46.722  33.188  25.495  1.00  0.00     0.030 A 
ATOM      7  N   UNL     1     -45.750  33.960  26.087  1.00  0.00    -0.357 N 
ATOM      8  C   UNL     1     -46.317  34.972  26.826  1.00  0.00     0.046 A 
ATOM      9  C   UNL     1     -45.714  35.977  27.594  1.00  0.00    -0.033 A 
ATOM     10  H   UNL     1     -48.598  37.483  28.650  1.00  0.00     0.063 H 
ATOM     11  H   UNL     1     -49.607  35.693  27.282  1.00  0.00     0.063 H 
ATOM     12  H   UNL     1     -48.911  33.348  25.554  1.00  0.00     0.065 H 
ATOM     13  H   UNL     1     -44.760  33.771  26.006  1.00  0.00     0.166 HD
ATOM     14  H   UNL     1     -44.633  36.038  27.672  1.00  0.00     0.065 H 
ENDROOT
BRANCH   1  15
ATOM     15  C   UNL     1     -45.953  37.986  29.106  1.00  0.00     0.068 C 
ATOM     16  H   UNL     1     -44.989  37.663  29.516  1.00  0.00     0.057 H 
ATOM     17  H   UNL     1     -46.601  38.240  29.953  1.00  0.00     0.057 H 
BRANCH  15  18
ATOM     18  N   UNL     1     -45.751  39.204  28.343  1.00  0.00    -0.247 N 
ATOM     19  C   UNL     1     -44.977  40.813  27.127  1.00  0.00     0.116 A 
ATOM     20  C   UNL     1     -44.595  39.662  27.776  1.00  0.00     0.054 A 
ATOM     21  N   UNL     1     -46.316  41.023  27.336  1.00  0.00    -0.130 NA
ATOM     22  H   UNL     1     -43.654  39.146  27.903  1.00  0.00     0.086 H 
ATOM     23  N   UNL     1     -46.784  40.024  28.072  1.00  0.00    -0.066 NA
BRANCH  19  24
ATOM     24  C   UNL     1     -44.143  41.732  26.377  1.00  0.00     0.044 A 
ATOM     25  C   UNL     1     -43.781  42.961  24.310  1.00  0.00     0.137 A 
ATOM     26  C   UNL     1     -42.623  43.464  24.886  1.00  0.00     0.070 A 
ATOM     27  C   UNL     1     -44.544  42.081  25.074  1.00  0.00    -0.006 A 
ATOM     28  N   UNL     1     -42.188  43.151  26.129  1.00  0.00    -0.241 NA
ATOM     29  H   UNL     1     -41.990  44.157  24.337  1.00  0.00     0.088 H 
ATOM     30  H   UNL     1     -45.464  41.654  24.682  1.00  0.00     0.067 H 
ATOM     31  C   UNL     1     -42.950  42.285  26.851  1.00  0.00     0.150 A 
BRANCH  25  32
ATOM     32  O   UNL     1     -44.055  43.385  23.043  1.00  0.00    -0.495 OA
BRANCH  32  33
ATOM     33  C   UNL     1     -45.031  44.412  22.904  1.00  0.00     0.078 C 
ATOM     34  H   UNL     1     -44.604  45.394  23.131  1.00  0.00     0.067 H 
ATOM     35  H   UNL     1     -45.480  44.395  21.906  1.00  0.00     0.067 H 
ATOM     36  H   UNL     1     -45.825  44.217  23.631  1.00  0.00     0.067 H 
ENDBRANCH  32  33
ENDBRANCH  25  32
BRANCH  31  37
ATOM     37  C   UNL     1     -42.397  41.966  28.140  1.00  0.00     0.120 C 
ATOM     38  N   UNL     1     -41.982  41.692  29.192  1.00  0.00    -0.191 NA
ENDBRANCH  31  37
ENDBRANCH  19  24
ENDBRANCH  15  18
ENDBRANCH   1  15
BRANCH   6  39
ATOM     39  C   UNL     1     -46.372  32.029  24.630  1.00  0.00     0.036 C 
ATOM     40  H   UNL     1     -45.653  31.395  25.164  1.00  0.00     0.049 H 
ATOM     41  H   UNL     1     -45.894  32.384  23.709  1.00  0.00     0.049 H 
BRANCH  39  42
ATOM     42  N   UNL     1     -47.587  31.278  24.320  1.00  0.00    -0.311 NA
ATOM     43  H   UNL     1     -48.248  31.923  23.884  1.00  0.00     0.123 HD
BRANCH  42  44
ATOM     44  C   UNL     1     -47.301  30.188  23.387  1.00  0.00     0.001 C 
ATOM     45  H   UNL     1     -47.676  30.438  22.388  1.00  0.00     0.043 H 
ATOM     46  H   UNL     1     -46.218  30.040  23.307  1.00  0.00     0.043 H 
BRANCH  44  47
ATOM     47  C   UNL     1     -47.939  28.935  23.870  1.00  0.00    -0.016 C 
ATOM     48  C   UNL     1     -48.895  28.694  25.106  1.00  0.00    -0.043 C 
ATOM     49  C   UNL     1     -48.966  28.022  23.089  1.00  0.00    -0.043 C 
ATOM     50  C   UNL     1     -47.278  27.565  24.299  1.00  0.00    -0.043 C 
ATOM     51  C   UNL     1     -48.809  27.271  24.455  1.00  0.00    -0.040 C 
ATOM     52  H   UNL     1     -48.455  28.808  26.102  1.00  0.00     0.028 H 
ATOM     53  H   UNL     1     -49.869  29.192  25.083  1.00  0.00     0.028 H 
ATOM     54  H   UNL     1     -48.594  27.510  22.195  1.00  0.00     0.028 H 
ATOM     55  H   UNL     1     -49.948  28.455  22.871  1.00  0.00     0.028 H 
ATOM     56  H   UNL     1     -46.741  27.007  23.523  1.00  0.00     0.028 H 
ATOM     57  H   UNL     1     -46.679  27.568  25.216  1.00  0.00     0.028 H 
ATOM     58  H   UNL     1     -49.286  26.359  24.774  1.00  0.00     0.030 H 
ENDBRANCH  44  47
ENDBRANCH  42  44
ENDBRANCH  39  42
ENDBRANCH   6  39
TORSDOF 10
ENDMDL
MODEL 4
REMARK VINA RESULT:      -9.3      2.940      4.091
REMARK SMILES COc1cnc(C#N)c(-c2cn(Cc3ccc4cc(CNCC56CC(C5)C6)[nH]c4c3)nn2)c1
REMARK SMILES IDX 14 1 15 2 16 3 17 4 18 5 19 6 28 7 29 8 30 9 13 15 12 18
REMARK SMILES IDX 10 19 11 20 32 21 31 23 9 24 3 25 4 26 33 27 5 28 6 31 2 32
REMARK SMILES IDX 1 33 7 37 8 38 20 39 21 42 22 44 23 47 24 48 26 49 27 50
REMARK SMILES IDX 25 51
REMARK H PARENT 15 10 16 11 18 12 28 13 30 14 13 16 13 17 11 22 4 29 33 30
REMARK H PARENT 1 34 1 35 1 36 20 40 20 41 21 43 22 45 22 46 24 52 24 53 26 54
REMARK H PARENT 26 55 27 56 27 57 25 58
REMARK Flexibility Score: inf
ROOT
ATOM      1  C   UNL     1     -46.528  35.774  28.122  1.00  0.00    -0.024 A 
ATOM      2  C   UNL     1     -47.906  35.779  27.869  1.00  0.00    -0.056 A 
ATOM      3  C   UNL     1     -48.472  34.918  26.920  1.00  0.00    -0.052 A 
ATOM      4  C   UNL     1     -47.640  34.031  26.210  1.00  0.00    -0.000 A 
ATOM      5  C   UNL     1     -47.871  33.046  25.210  1.00  0.00    -0.032 A 
ATOM      6  C   UNL     1     -46.657  32.477  24.884  1.00  0.00     0.030 A 
ATOM      7  N   UNL     1     -45.701  33.095  25.655  1.00  0.00    -0.357 N 
ATOM      8  C   UNL     1     -46.273  34.041  26.473  1.00  0.00     0.046 A 
ATOM      9  C   UNL     1     -45.686  34.893  27.418  1.00  0.00    -0.033 A 
ATOM     10  H   UNL     1     -48.562  36.455  28.416  1.00  0.00     0.063 H 
ATOM     11  H   UNL     1     -49.542  34.932  26.738  1.00  0.00     0.063 H 
ATOM     12  H   UNL     1     -48.828  32.784  24.777  1.00  0.00     0.065 H 
ATOM     13  H   UNL     1     -44.720  32.847  25.635  1.00  0.00     0.166 HD
ATOM     14  H   UNL     1     -44.615  34.867  27.595  1.00  0.00     0.065 H 
ENDROOT
BRANCH   1  15
ATOM     15  C   UNL     1     -45.946  36.703  29.160  1.00  0.00     0.068 C 
ATOM     16  H   UNL     1     -44.972  36.332  29.500  1.00  0.00     0.057 H 
ATOM     17  H   UNL     1     -46.593  36.780  30.041  1.00  0.00     0.057 H 
BRANCH  15  18
ATOM     18  N   UNL     1     -45.777  38.047  28.638  1.00  0.00    -0.247 N 
ATOM     19  C   UNL     1     -45.066  39.857  27.696  1.00  0.00     0.116 A 
ATOM     20  C   UNL     1     -44.663  38.595  28.066  1.00  0.00     0.054 A 
ATOM     21  N   UNL     1     -46.374  40.037  28.067  1.00  0.00    -0.130 NA
ATOM     22  H   UNL     1     -43.730  38.053  28.000  1.00  0.00     0.086 H 
ATOM     23  N   UNL     1     -46.805  38.916  28.631  1.00  0.00    -0.066 NA
BRANCH  19  24
ATOM     24  C   UNL     1     -44.275  40.897  27.068  1.00  0.00     0.044 A 
ATOM     25  C   UNL     1     -43.922  42.325  25.131  1.00  0.00     0.137 A 
ATOM     26  C   UNL     1     -42.832  42.860  25.803  1.00  0.00     0.070 A 
ATOM     27  C   UNL     1     -44.646  41.328  25.780  1.00  0.00    -0.006 A 
ATOM     28  N   UNL     1     -42.428  42.474  27.035  1.00  0.00    -0.241 NA
ATOM     29  H   UNL     1     -42.233  43.644  25.346  1.00  0.00     0.088 H 
ATOM     30  H   UNL     1     -45.512  40.869  25.309  1.00  0.00     0.067 H 
ATOM     31  C   UNL     1     -43.150  41.493  27.644  1.00  0.00     0.150 A 
BRANCH  25  32
ATOM     32  O   UNL     1     -44.175  42.837  23.892  1.00  0.00    -0.495 OA
BRANCH  32  33
ATOM     33  C   UNL     1     -43.261  43.810  23.398  1.00  0.00     0.078 C 
ATOM     34  H   UNL     1     -43.344  43.911  22.311  1.00  0.00     0.067 H 
ATOM     35  H   UNL     1     -43.404  44.773  23.898  1.00  0.00     0.067 H 
ATOM     36  H   UNL     1     -42.249  43.462  23.625  1.00  0.00     0.067 H 
ENDBRANCH  32  33
ENDBRANCH  25  32
BRANCH  31  37
ATOM     37  C   UNL     1     -42.630  41.104  28.928  1.00  0.00     0.120 C 
ATOM     38  N   UNL     1     -42.232  40.813  29.981  1.00  0.00    -0.191 NA
ENDBRANCH  31  37
ENDBRANCH  19  24
ENDBRANCH  15  18
ENDBRANCH   1  15
BRANCH   6  39
ATOM     39  C   UNL     1     -46.297  31.416  23.904  1.00  0.00     0.036 C 
ATOM     40  H   UNL     1     -45.652  30.681  24.402  1.00  0.00     0.049 H 
ATOM     41  H   UNL     1     -45.733  31.856  23.073  1.00  0.00     0.049 H 
BRANCH  39  42
ATOM     42  N   UNL     1     -47.518  30.780  23.416  1.00  0.00    -0.311 NA
ATOM     43  H   UNL     1     -48.300  31.404  23.628  1.00  0.00     0.123 HD
BRANCH  42  44
ATOM     44  C   UNL     1     -47.455  30.573  21.969  1.00  0.00     0.001 C 
ATOM     45  H   UNL     1     -47.043  31.461  21.478  1.00  0.00     0.043 H 
ATOM     46  H   UNL     1     -46.791  29.731  21.743  1.00  0.00     0.043 H 
BRANCH  44  47
ATOM     47  C   UNL     1     -48.816  30.287  21.444  1.00  0.00    -0.016 C 
ATOM     48  C   UNL     1     -50.123  29.830  22.207  1.00  0.00    -0.043 C 
ATOM     49  C   UNL     1     -49.783  31.290  20.698  1.00  0.00    -0.043 C 
ATOM     50  C   UNL     1     -49.276  29.256  20.338  1.00  0.00    -0.043 C 
ATOM     51  C   UNL     1     -50.618  29.965  20.727  1.00  0.00    -0.040 C 
ATOM     52  H   UNL     1     -50.119  28.824  22.637  1.00  0.00     0.028 H 
ATOM     53  H   UNL     1     -50.541  30.532  22.936  1.00  0.00     0.028 H 
ATOM     54  H   UNL     1     -49.460  31.651  19.716  1.00  0.00     0.028 H 
ATOM     55  H   UNL     1     -50.169  32.133  21.281  1.00  0.00     0.028 H 
ATOM     56  H   UNL     1     -48.904  29.420  19.320  1.00  0.00     0.028 H 
ATOM     57  H   UNL     1     -49.189  28.192  20.584  1.00  0.00     0.028 H 
ATOM     58  H   UNL     1     -51.606  29.790  20.333  1.00  0.00     0.030 H 
ENDBRANCH  44  47
ENDBRANCH  42  44
ENDBRANCH  39  42
ENDBRANCH   6  39
TORSDOF 10
ENDMDL
MODEL 5
REMARK VINA RESULT:      -9.3      1.701      2.641
REMARK SMILES COc1cnc(C#N)c(-c2cn(Cc3ccc4cc(CNCC56CC(C5)C6)[nH]c4c3)nn2)c1
REMARK SMILES IDX 14 1 15 2 16 3 17 4 18 5 19 6 28 7 29 8 30 9 13 15 12 18
REMARK SMILES IDX 10 19 11 20 32 21 31 23 9 24 3 25 4 26 33 27 5 28 6 31 2 32
REMARK SMILES IDX 1 33 7 37 8 38 20 39 21 42 22 44 23 47 24 48 26 49 27 50
REMARK SMILES IDX 25 51
REMARK H PARENT 15 10 16 11 18 12 28 13 30 14 13 16 13 17 11 22 4 29 33 30
REMARK H PARENT 1 34 1 35 1 36 20 40 20 41 21 43 22 45 22 46 24 52 24 53 26 54
REMARK H PARENT 26 55 27 56 27 57 25 58
REMARK Flexibility Score: inf
ROOT
ATOM      1  C   UNL     1     -46.581  35.611  28.448  1.00  0.00    -0.024 A 
ATOM      2  C   UNL     1     -47.911  35.787  28.042  1.00  0.00    -0.056 A 
ATOM      3  C   UNL     1     -48.436  35.078  26.954  1.00  0.00    -0.052 A 
ATOM      4  C   UNL     1     -47.613  34.172  26.259  1.00  0.00    -0.000 A 
ATOM      5  C   UNL     1     -47.813  33.309  25.146  1.00  0.00    -0.032 A 
ATOM      6  C   UNL     1     -46.629  32.642  24.905  1.00  0.00     0.030 A 
ATOM      7  N   UNL     1     -45.720  33.084  25.838  1.00  0.00    -0.357 N 
ATOM      8  C   UNL     1     -46.294  34.011  26.675  1.00  0.00     0.046 A 
ATOM      9  C   UNL     1     -45.749  34.709  27.761  1.00  0.00    -0.033 A 
ATOM     10  H   UNL     1     -48.560  36.480  28.575  1.00  0.00     0.063 H 
ATOM     11  H   UNL     1     -49.469  35.224  26.654  1.00  0.00     0.063 H 
ATOM     12  H   UNL     1     -48.730  33.191  24.583  1.00  0.00     0.065 H 
ATOM     13  H   UNL     1     -44.773  32.734  25.905  1.00  0.00     0.166 HD
ATOM     14  H   UNL     1     -44.716  34.551  28.055  1.00  0.00     0.065 H 
ENDROOT
BRANCH   1  15
ATOM     15  C   UNL     1     -46.045  36.378  29.633  1.00  0.00     0.068 C 
ATOM     16  H   UNL     1     -45.330  35.763  30.193  1.00  0.00     0.057 H 
ATOM     17  H   UNL     1     -46.845  36.663  30.326  1.00  0.00     0.057 H 
BRANCH  15  18
ATOM     18  N   UNL     1     -45.383  37.602  29.221  1.00  0.00    -0.247 N 
ATOM     19  C   UNL     1     -44.760  39.417  28.228  1.00  0.00     0.116 A 
ATOM     20  C   UNL     1     -45.601  38.337  28.089  1.00  0.00     0.054 A 
ATOM     21  N   UNL     1     -44.061  39.293  29.402  1.00  0.00    -0.130 NA
ATOM     22  H   UNL     1     -46.294  38.016  27.325  1.00  0.00     0.086 H 
ATOM     23  N   UNL     1     -44.460  38.184  30.009  1.00  0.00    -0.066 NA
BRANCH  19  24
ATOM     24  C   UNL     1     -44.555  40.512  27.300  1.00  0.00     0.044 A 
ATOM     25  C   UNL     1     -43.001  42.089  26.292  1.00  0.00     0.137 A 
ATOM     26  C   UNL     1     -44.075  42.586  25.568  1.00  0.00     0.070 A 
ATOM     27  C   UNL     1     -43.255  41.037  27.170  1.00  0.00    -0.006 A 
ATOM     28  N   UNL     1     -45.343  42.125  25.664  1.00  0.00    -0.241 NA
ATOM     29  H   UNL     1     -43.934  43.404  24.865  1.00  0.00     0.088 H 
ATOM     30  H   UNL     1     -42.457  40.600  27.765  1.00  0.00     0.067 H 
ATOM     31  C   UNL     1     -45.564  41.101  26.534  1.00  0.00     0.150 A 
BRANCH  25  32
ATOM     32  O   UNL     1     -41.795  42.685  26.067  1.00  0.00    -0.495 OA
BRANCH  32  33
ATOM     33  C   UNL     1     -41.690  43.509  24.911  1.00  0.00     0.078 C 
ATOM     34  H   UNL     1     -40.672  43.896  24.795  1.00  0.00     0.067 H 
ATOM     35  H   UNL     1     -42.015  42.972  24.014  1.00  0.00     0.067 H 
ATOM     36  H   UNL     1     -42.359  44.364  25.049  1.00  0.00     0.067 H 
ENDBRANCH  32  33
ENDBRANCH  25  32
BRANCH  31  37
ATOM     37  C   UNL     1     -46.943  40.699  26.616  1.00  0.00     0.120 C 
ATOM     38  N   UNL     1     -48.048  40.348  26.705  1.00  0.00    -0.191 NA
ENDBRANCH  31  37
ENDBRANCH  19  24
ENDBRANCH  15  18
ENDBRANCH   1  15
BRANCH   6  39
ATOM     39  C   UNL     1     -46.255  31.638  23.872  1.00  0.00     0.036 C 
ATOM     40  H   UNL     1     -45.851  30.751  24.374  1.00  0.00     0.049 H 
ATOM     41  H   UNL     1     -45.472  32.049  23.223  1.00  0.00     0.049 H 
BRANCH  39  42
ATOM     42  N   UNL     1     -47.440  31.290  23.091  1.00  0.00    -0.311 NA
ATOM     43  H   UNL     1     -47.574  32.021  22.388  1.00  0.00     0.123 HD
BRANCH  42  44
ATOM     44  C   UNL     1     -47.259  30.007  22.413  1.00  0.00     0.001 C 
ATOM     45  H   UNL     1     -47.773  30.014  21.446  1.00  0.00     0.043 H 
ATOM     46  H   UNL     1     -46.194  29.835  22.221  1.00  0.00     0.043 H 
BRANCH  44  47
ATOM     47  C   UNL     1     -47.793  28.911  23.265  1.00  0.00    -0.016 C 
ATOM     48  C   UNL     1     -47.036  27.728  23.990  1.00  0.00    -0.043 C 
ATOM     49  C   UNL     1     -48.567  29.056  24.635  1.00  0.00    -0.043 C 
ATOM     50  C   UNL     1     -48.885  27.817  22.936  1.00  0.00    -0.043 C 
ATOM     51  C   UNL     1     -48.523  27.504  24.428  1.00  0.00    -0.040 C 
ATOM     52  H   UNL     1     -46.588  26.961  23.351  1.00  0.00     0.028 H 
ATOM     53  H   UNL     1     -46.324  28.004  24.775  1.00  0.00     0.028 H 
ATOM     54  H   UNL     1     -49.552  29.533  24.600  1.00  0.00     0.028 H 
ATOM     55  H   UNL     1     -48.003  29.460  25.482  1.00  0.00     0.028 H 
ATOM     56  H   UNL     1     -49.902  28.174  22.736  1.00  0.00     0.028 H 
ATOM     57  H   UNL     1     -48.620  27.058  22.192  1.00  0.00     0.028 H 
ATOM     58  H   UNL     1     -48.924  26.733  25.066  1.00  0.00     0.030 H 
ENDBRANCH  44  47
ENDBRANCH  42  44
ENDBRANCH  39  42
ENDBRANCH   6  39
TORSDOF 10
ENDMDL
MODEL 6
REMARK VINA RESULT:      -9.2      3.396     11.665
REMARK SMILES COc1cnc(C#N)c(-c2cn(Cc3ccc4cc(CNCC56CC(C5)C6)[nH]c4c3)nn2)c1
REMARK SMILES IDX 14 1 15 2 16 3 17 4 18 5 19 6 28 7 29 8 30 9 13 15 12 18
REMARK SMILES IDX 10 19 11 20 32 21 31 23 9 24 3 25 4 26 33 27 5 28 6 31 2 32
REMARK SMILES IDX 1 33 7 37 8 38 20 39 21 42 22 44 23 47 24 48 26 49 27 50
REMARK SMILES IDX 25 51
REMARK H PARENT 15 10 16 11 18 12 28 13 30 14 13 16 13 17 11 22 4 29 33 30
REMARK H PARENT 1 34 1 35 1 36 20 40 20 41 21 43 22 45 22 46 24 52 24 53 26 54
REMARK H PARENT 26 55 27 56 27 57 25 58
REMARK Flexibility Score: inf
ROOT
ATOM      1  C   UNL     1     -47.383  36.279  27.507  1.00  0.00    -0.024 A 
ATOM      2  C   UNL     1     -46.764  35.917  28.711  1.00  0.00    -0.056 A 
ATOM      3  C   UNL     1     -45.753  36.707  29.273  1.00  0.00    -0.052 A 
ATOM      4  C   UNL     1     -45.354  37.886  28.616  1.00  0.00    -0.000 A 
ATOM      5  C   UNL     1     -44.393  38.897  28.896  1.00  0.00    -0.032 A 
ATOM      6  C   UNL     1     -44.447  39.830  27.881  1.00  0.00     0.030 A 
ATOM      7  N   UNL     1     -45.409  39.407  26.994  1.00  0.00    -0.357 N 
ATOM      8  C   UNL     1     -45.979  38.230  27.420  1.00  0.00     0.046 A 
ATOM      9  C   UNL     1     -46.992  37.455  26.841  1.00  0.00    -0.033 A 
ATOM     10  H   UNL     1     -47.068  35.011  29.233  1.00  0.00     0.063 H 
ATOM     11  H   UNL     1     -45.285  36.413  30.208  1.00  0.00     0.063 H 
ATOM     12  H   UNL     1     -43.733  38.934  29.753  1.00  0.00     0.065 H 
ATOM     13  H   UNL     1     -45.673  39.925  26.166  1.00  0.00     0.166 HD
ATOM     14  H   UNL     1     -47.456  37.761  25.908  1.00  0.00     0.065 H 
ENDROOT
BRANCH   1  15
ATOM     15  C   UNL     1     -48.480  35.416  26.931  1.00  0.00     0.068 C 
ATOM     16  H   UNL     1     -49.100  35.999  26.240  1.00  0.00     0.057 H 
ATOM     17  H   UNL     1     -49.141  35.026  27.714  1.00  0.00     0.057 H 
BRANCH  15  18
ATOM     18  N   UNL     1     -47.940  34.271  26.222  1.00  0.00    -0.247 N 
ATOM     19  C   UNL     1     -47.626  32.389  25.207  1.00  0.00     0.116 A 
ATOM     20  C   UNL     1     -48.555  33.082  25.949  1.00  0.00     0.054 A 
ATOM     21  N   UNL     1     -46.496  33.155  25.077  1.00  0.00    -0.130 NA
ATOM     22  H   UNL     1     -49.547  32.856  26.312  1.00  0.00     0.086 H 
ATOM     23  N   UNL     1     -46.703  34.312  25.690  1.00  0.00    -0.066 NA
BRANCH  19  24
ATOM     24  C   UNL     1     -47.735  31.047  24.671  1.00  0.00     0.044 A 
ATOM     25  C   UNL     1     -48.581  28.784  24.949  1.00  0.00     0.137 A 
ATOM     26  C   UNL     1     -47.988  28.480  23.731  1.00  0.00     0.070 A 
ATOM     27  C   UNL     1     -48.445  30.088  25.417  1.00  0.00    -0.006 A 
ATOM     28  N   UNL     1     -47.286  29.361  22.981  1.00  0.00    -0.241 NA
ATOM     29  H   UNL     1     -48.065  27.478  23.315  1.00  0.00     0.088 H 
ATOM     30  H   UNL     1     -48.889  30.391  26.363  1.00  0.00     0.067 H 
ATOM     31  C   UNL     1     -47.164  30.627  23.466  1.00  0.00     0.150 A 
BRANCH  25  32
ATOM     32  O   UNL     1     -49.244  27.764  25.565  1.00  0.00    -0.495 OA
BRANCH  32  33
ATOM     33  C   UNL     1     -48.646  27.221  26.737  1.00  0.00     0.078 C 
ATOM     34  H   UNL     1     -47.592  27.509  26.811  1.00  0.00     0.067 H 
ATOM     35  H   UNL     1     -49.201  27.513  27.634  1.00  0.00     0.067 H 
ATOM     36  H   UNL     1     -48.689  26.130  26.658  1.00  0.00     0.067 H 
ENDBRANCH  32  33
ENDBRANCH  25  32
BRANCH  31  37
ATOM     37  C   UNL     1     -46.364  31.489  22.637  1.00  0.00     0.120 C 
ATOM     38  N   UNL     1     -45.716  32.160  21.943  1.00  0.00    -0.191 NA
ENDBRANCH  31  37
ENDBRANCH  19  24
ENDBRANCH  15  18
ENDBRANCH   1  15
BRANCH   6  39
ATOM     39  C   UNL     1     -43.671  41.078  27.647  1.00  0.00     0.036 C 
ATOM     40  H   UNL     1     -42.847  40.857  26.958  1.00  0.00     0.049 H 
ATOM     41  H   UNL     1     -43.239  41.428  28.593  1.00  0.00     0.049 H 
BRANCH  39  42
ATOM     42  N   UNL     1     -44.556  42.094  27.080  1.00  0.00    -0.311 NA
ATOM     43  H   UNL     1     -45.347  42.208  27.717  1.00  0.00     0.123 HD
BRANCH  42  44
ATOM     44  C   UNL     1     -43.861  43.375  26.950  1.00  0.00     0.001 C 
ATOM     45  H   UNL     1     -44.514  44.193  27.274  1.00  0.00     0.043 H 
ATOM     46  H   UNL     1     -42.974  43.384  27.594  1.00  0.00     0.043 H 
BRANCH  44  47
ATOM     47  C   UNL     1     -43.452  43.582  25.536  1.00  0.00    -0.016 C 
ATOM     48  C   UNL     1     -42.022  43.479  24.869  1.00  0.00    -0.043 C 
ATOM     49  C   UNL     1     -43.936  42.767  24.271  1.00  0.00    -0.043 C 
ATOM     50  C   UNL     1     -43.635  44.846  24.606  1.00  0.00    -0.043 C 
ATOM     51  C   UNL     1     -42.948  43.812  23.650  1.00  0.00    -0.040 C 
ATOM     52  H   UNL     1     -41.287  44.238  25.153  1.00  0.00     0.028 H 
ATOM     53  H   UNL     1     -41.543  42.495  24.873  1.00  0.00     0.028 H 
ATOM     54  H   UNL     1     -44.992  42.859  23.998  1.00  0.00     0.028 H 
ATOM     55  H   UNL     1     -43.642  41.714  24.218  1.00  0.00     0.028 H 
ATOM     56  H   UNL     1     -44.663  45.140  24.364  1.00  0.00     0.028 H 
ATOM     57  H   UNL     1     -43.058  45.741  24.864  1.00  0.00     0.028 H 
ATOM     58  H   UNL     1     -42.673  43.938  22.615  1.00  0.00     0.030 H 
ENDBRANCH  44  47
ENDBRANCH  42  44
ENDBRANCH  39  42
ENDBRANCH   6  39
TORSDOF 10
ENDMDL
MODEL 7
REMARK VINA RESULT:      -9.0      1.901      3.527
REMARK SMILES COc1cnc(C#N)c(-c2cn(Cc3ccc4cc(CNCC56CC(C5)C6)[nH]c4c3)nn2)c1
REMARK SMILES IDX 14 1 15 2 16 3 17 4 18 5 19 6 28 7 29 8 30 9 13 15 12 18
REMARK SMILES IDX 10 19 11 20 32 21 31 23 9 24 3 25 4 26 33 27 5 28 6 31 2 32
REMARK SMILES IDX 1 33 7 37 8 38 20 39 21 42 22 44 23 47 24 48 26 49 27 50
REMARK SMILES IDX 25 51
REMARK H PARENT 15 10 16 11 18 12 28 13 30 14 13 16 13 17 11 22 4 29 33 30
REMARK H PARENT 1 34 1 35 1 36 20 40 20 41 21 43 22 45 22 46 24 52 24 53 26 54
REMARK H PARENT 26 55 27 56 27 57 25 58
REMARK Flexibility Score: inf
ROOT
ATOM      1  C   UNL     1     -47.266  32.283  25.072  1.00  0.00    -0.024 A 
ATOM      2  C   UNL     1     -48.525  32.769  25.451  1.00  0.00    -0.056 A 
ATOM      3  C   UNL     1     -49.695  32.062  25.147  1.00  0.00    -0.052 A 
ATOM      4  C   UNL     1     -49.604  30.843  24.451  1.00  0.00    -0.000 A 
ATOM      5  C   UNL     1     -50.559  29.891  23.996  1.00  0.00    -0.032 A 
ATOM      6  C   UNL     1     -49.875  28.871  23.365  1.00  0.00     0.030 A 
ATOM      7  N   UNL     1     -48.538  29.184  23.422  1.00  0.00    -0.357 N 
ATOM      8  C   UNL     1     -48.346  30.376  24.080  1.00  0.00     0.046 A 
ATOM      9  C   UNL     1     -47.162  31.065  24.374  1.00  0.00    -0.033 A 
ATOM     10  H   UNL     1     -48.609  33.707  25.996  1.00  0.00     0.063 H 
ATOM     11  H   UNL     1     -50.663  32.452  25.450  1.00  0.00     0.063 H 
ATOM     12  H   UNL     1     -51.632  29.950  24.119  1.00  0.00     0.065 H 
ATOM     13  H   UNL     1     -47.808  28.587  23.055  1.00  0.00     0.166 HD
ATOM     14  H   UNL     1     -46.200  30.664  24.071  1.00  0.00     0.065 H 
ENDROOT
BRANCH   1  15
ATOM     15  C   UNL     1     -46.018  33.057  25.424  1.00  0.00     0.068 C 
ATOM     16  H   UNL     1     -45.554  33.464  24.518  1.00  0.00     0.057 H 
ATOM     17  H   UNL     1     -45.274  32.422  25.917  1.00  0.00     0.057 H 
BRANCH  15  18
ATOM     18  N   UNL     1     -46.310  34.152  26.331  1.00  0.00    -0.247 N 
ATOM     19  C   UNL     1     -46.854  36.037  27.238  1.00  0.00     0.116 A 
ATOM     20  C   UNL     1     -46.604  35.450  26.019  1.00  0.00     0.054 A 
ATOM     21  N   UNL     1     -46.683  35.103  28.228  1.00  0.00    -0.130 NA
ATOM     22  H   UNL     1     -46.591  35.808  25.000  1.00  0.00     0.086 H 
ATOM     23  N   UNL     1     -46.363  33.948  27.661  1.00  0.00    -0.066 NA
BRANCH  19  24
ATOM     24  C   UNL     1     -47.188  37.421  27.509  1.00  0.00     0.044 A 
ATOM     25  C   UNL     1     -46.424  39.723  27.693  1.00  0.00     0.137 A 
ATOM     26  C   UNL     1     -47.731  40.064  28.011  1.00  0.00     0.070 A 
ATOM     27  C   UNL     1     -46.159  38.379  27.442  1.00  0.00    -0.006 A 
ATOM     28  N   UNL     1     -48.753  39.182  28.100  1.00  0.00    -0.241 NA
ATOM     29  H   UNL     1     -47.997  41.100  28.213  1.00  0.00     0.088 H 
ATOM     30  H   UNL     1     -45.156  38.046  27.184  1.00  0.00     0.067 H 
ATOM     31  C   UNL     1     -48.464  37.874  27.856  1.00  0.00     0.150 A 
BRANCH  25  32
ATOM     32  O   UNL     1     -45.527  40.749  27.656  1.00  0.00    -0.495 OA
BRANCH  32  33
ATOM     33  C   UNL     1     -44.147  40.399  27.651  1.00  0.00     0.078 C 
ATOM     34  H   UNL     1     -43.604  40.953  26.879  1.00  0.00     0.067 H 
ATOM     35  H   UNL     1     -43.699  40.551  28.638  1.00  0.00     0.067 H 
ATOM     36  H   UNL     1     -44.075  39.334  27.411  1.00  0.00     0.067 H 
ENDBRANCH  32  33
ENDBRANCH  25  32
BRANCH  31  37
ATOM     37  C   UNL     1     -49.590  36.993  28.017  1.00  0.00     0.120 C 
ATOM     38  N   UNL     1     -50.491  36.277  28.183  1.00  0.00    -0.191 NA
ENDBRANCH  31  37
ENDBRANCH  19  24
ENDBRANCH  15  18
ENDBRANCH   1  15
BRANCH   6  39
ATOM     39  C   UNL     1     -50.355  27.631  22.695  1.00  0.00     0.036 C 
ATOM     40  H   UNL     1     -50.070  27.670  21.637  1.00  0.00     0.049 H 
ATOM     41  H   UNL     1     -51.449  27.579  22.751  1.00  0.00     0.049 H 
BRANCH  39  42
ATOM     42  N   UNL     1     -49.752  26.470  23.346  1.00  0.00    -0.311 NA
ATOM     43  H   UNL     1     -48.736  26.571  23.282  1.00  0.00     0.123 HD
BRANCH  42  44
ATOM     44  C   UNL     1     -50.135  26.406  24.756  1.00  0.00     0.001 C 
ATOM     45  H   UNL     1     -50.729  27.286  25.027  1.00  0.00     0.043 H 
ATOM     46  H   UNL     1     -50.755  25.520  24.933  1.00  0.00     0.043 H 
BRANCH  44  47
ATOM     47  C   UNL     1     -48.916  26.336  25.604  1.00  0.00    -0.016 C 
ATOM     48  C   UNL     1     -47.390  26.419  25.197  1.00  0.00    -0.043 C 
ATOM     49  C   UNL     1     -48.503  27.321  26.769  1.00  0.00    -0.043 C 
ATOM     50  C   UNL     1     -48.439  25.202  26.597  1.00  0.00    -0.043 C 
ATOM     51  C   UNL     1     -47.324  26.291  26.757  1.00  0.00    -0.040 C 
ATOM     52  H   UNL     1     -46.987  25.585  24.615  1.00  0.00     0.028 H 
ATOM     53  H   UNL     1     -47.045  27.362  24.762  1.00  0.00     0.028 H 
ATOM     54  H   UNL     1     -49.143  27.332  27.658  1.00  0.00     0.028 H 
ATOM     55  H   UNL     1     -48.265  28.351  26.486  1.00  0.00     0.028 H 
ATOM     56  H   UNL     1     -49.072  25.008  27.470  1.00  0.00     0.028 H 
ATOM     57  H   UNL     1     -48.139  24.247  26.152  1.00  0.00     0.028 H 
ATOM     58  H   UNL     1     -46.451  26.267  27.390  1.00  0.00     0.030 H 
ENDBRANCH  44  47
ENDBRANCH  42  44
ENDBRANCH  39  42
ENDBRANCH   6  39
TORSDOF 10
ENDMDL
