MODEL 1
REMARK VINA RESULT:     -10.8      0.000      0.000
REMARK SMILES Nc1ncnc2c1ccn2[C@@H]1C[C@H](CCc2ccc3ccc(Nc4ccccc4)nc3c2)[C@@H](O)[C@H]1O
REMARK SMILES IDX 14 1 13 4 11 5 12 6 35 7 33 11 10 15 2 16 3 17 7 18 4 19
REMARK SMILES IDX 6 20 8 21 5 22 9 24 1 27 36 30 34 32 15 34 16 37 17 38 32 39
REMARK SMILES IDX 18 40 31 42 19 44 30 46 20 47 22 48 21 49 23 52 24 54 25 55
REMARK SMILES IDX 29 56 26 57 28 59 27 61
REMARK H PARENT 14 2 14 3 11 8 12 9 12 10 35 12 13 13 33 14 4 23 8 25 9 26
REMARK H PARENT 1 28 1 29 36 31 34 33 15 35 15 36 17 41 32 43 18 45 20 50
REMARK H PARENT 21 51 23 53 25 58 29 60 26 62 28 63 27 64
REMARK Flexibility Score: inf
ROOT
ATOM      1  C   UNL     1     -46.680  32.444  24.035  1.00  0.00    -0.044 C 
ATOM      2  H   UNL     1     -47.779  32.451  24.050  1.00  0.00     0.027 H 
ATOM      3  H   UNL     1     -46.378  33.323  23.451  1.00  0.00     0.027 H 
ENDROOT
BRANCH   1   4
ATOM      4  C   UNL     1     -46.200  31.163  23.326  1.00  0.00    -0.010 C 
ATOM      5  C   UNL     1     -47.710  29.184  23.083  1.00  0.00     0.064 C 
ATOM      6  C   UNL     1     -46.745  29.909  24.052  1.00  0.00    -0.024 C 
ATOM      7  C   UNL     1     -48.054  30.276  22.056  1.00  0.00     0.101 C 
ATOM      8  H   UNL     1     -47.183  28.360  22.580  1.00  0.00     0.056 H 
ATOM      9  H   UNL     1     -47.237  30.184  24.993  1.00  0.00     0.029 H 
ATOM     10  H   UNL     1     -45.918  29.238  24.314  1.00  0.00     0.029 H 
ATOM     11  C   UNL     1     -46.727  31.021  21.898  1.00  0.00     0.085 C 
ATOM     12  H   UNL     1     -48.832  30.960  22.419  1.00  0.00     0.065 H 
ATOM     13  H   UNL     1     -45.105  31.125  23.345  1.00  0.00     0.033 H 
ATOM     14  H   UNL     1     -46.844  31.962  21.354  1.00  0.00     0.063 H 
BRANCH   5  15
ATOM     15  N   UNL     1     -48.828  28.539  23.765  1.00  0.00    -0.327 N 
ATOM     16  C   UNL     1     -50.233  26.184  26.015  1.00  0.00     0.136 A 
ATOM     17  N   UNL     1     -49.148  25.512  26.440  1.00  0.00    -0.219 NA
ATOM     18  C   UNL     1     -50.070  27.229  25.094  1.00  0.00     0.061 A 
ATOM     19  C   UNL     1     -47.945  25.892  25.974  1.00  0.00     0.120 A 
ATOM     20  C   UNL     1     -48.772  27.506  24.676  1.00  0.00     0.145 A 
ATOM     21  C   UNL     1     -50.924  28.158  24.446  1.00  0.00    -0.031 A 
ATOM     22  N   UNL     1     -47.662  26.872  25.096  1.00  0.00    -0.218 NA
ATOM     23  H   UNL     1     -47.096  25.333  26.355  1.00  0.00     0.106 H 
ATOM     24  C   UNL     1     -50.136  28.968  23.660  1.00  0.00     0.007 A 
ATOM     25  H   UNL     1     -51.997  28.245  24.564  1.00  0.00     0.065 H 
ATOM     26  H   UNL     1     -50.401  29.813  23.035  1.00  0.00     0.082 H 
BRANCH  16  27
ATOM     27  N   UNL     1     -51.465  25.783  26.513  1.00  0.00    -0.383 N 
ATOM     28  H   UNL     1     -51.741  26.225  27.378  1.00  0.00     0.158 HD
ATOM     29  H   UNL     1     -52.159  25.755  25.776  1.00  0.00     0.158 HD
ENDBRANCH  16  27
ENDBRANCH   5  15
BRANCH   7  30
ATOM     30  O   UNL     1     -48.439  29.747  20.788  1.00  0.00    -0.388 OA
ATOM     31  H   UNL     1     -47.637  29.292  20.452  1.00  0.00     0.211 HD
ENDBRANCH   7  30
BRANCH  11  32
ATOM     32  O   UNL     1     -45.820  30.208  21.148  1.00  0.00    -0.390 OA
ATOM     33  H   UNL     1     -46.219  30.149  20.254  1.00  0.00     0.211 HD
ENDBRANCH  11  32
ENDBRANCH   1   4
BRANCH   1  34
ATOM     34  C   UNL     1     -46.162  32.622  25.469  1.00  0.00    -0.027 C 
ATOM     35  H   UNL     1     -45.065  32.677  25.443  1.00  0.00     0.032 H 
ATOM     36  H   UNL     1     -46.389  31.739  26.076  1.00  0.00     0.032 H 
BRANCH  34  37
ATOM     37  C   UNL     1     -46.672  33.867  26.150  1.00  0.00    -0.046 A 
ATOM     38  C   UNL     1     -48.040  34.155  26.178  1.00  0.00    -0.058 A 
ATOM     39  C   UNL     1     -45.780  34.757  26.770  1.00  0.00    -0.033 A 
ATOM     40  C   UNL     1     -48.497  35.308  26.813  1.00  0.00    -0.053 A 
ATOM     41  H   UNL     1     -48.754  33.485  25.705  1.00  0.00     0.063 H 
ATOM     42  C   UNL     1     -46.210  35.916  27.405  1.00  0.00     0.073 A 
ATOM     43  H   UNL     1     -44.712  34.546  26.767  1.00  0.00     0.065 H 
ATOM     44  C   UNL     1     -47.590  36.188  27.425  1.00  0.00     0.000 A 
ATOM     45  H   UNL     1     -49.565  35.517  26.825  1.00  0.00     0.063 H 
ATOM     46  N   UNL     1     -45.306  36.734  27.972  1.00  0.00    -0.231 NA
ATOM     47  C   UNL     1     -48.012  37.355  28.066  1.00  0.00    -0.049 A 
ATOM     48  C   UNL     1     -45.719  37.856  28.597  1.00  0.00     0.131 A 
ATOM     49  C   UNL     1     -47.070  38.192  28.655  1.00  0.00    -0.019 A 
ATOM     50  H   UNL     1     -49.065  37.619  28.108  1.00  0.00     0.063 H 
ATOM     51  H   UNL     1     -47.390  39.107  29.141  1.00  0.00     0.066 H 
BRANCH  48  52
ATOM     52  N   UNL     1     -44.801  38.747  29.204  1.00  0.00    -0.340 N 
ATOM     53  H   UNL     1     -44.267  38.247  29.906  1.00  0.00     0.168 HD
BRANCH  52  54
ATOM     54  C   UNL     1     -44.039  39.777  28.610  1.00  0.00     0.040 A 
ATOM     55  C   UNL     1     -42.990  40.428  29.268  1.00  0.00    -0.039 A 
ATOM     56  C   UNL     1     -44.251  40.082  27.255  1.00  0.00    -0.039 A 
ATOM     57  C   UNL     1     -42.217  41.397  28.618  1.00  0.00    -0.060 A 
ATOM     58  H   UNL     1     -42.755  40.187  30.301  1.00  0.00     0.064 H 
ATOM     59  C   UNL     1     -43.481  41.049  26.601  1.00  0.00    -0.060 A 
ATOM     60  H   UNL     1     -45.026  39.569  26.692  1.00  0.00     0.064 H 
ATOM     61  C   UNL     1     -42.466  41.711  27.285  1.00  0.00    -0.062 A 
ATOM     62  H   UNL     1     -41.419  41.897  29.158  1.00  0.00     0.062 H 
ATOM     63  H   UNL     1     -43.672  41.278  25.556  1.00  0.00     0.062 H 
ATOM     64  H   UNL     1     -41.865  42.462  26.781  1.00  0.00     0.062 H 
ENDBRANCH  52  54
ENDBRANCH  48  52
ENDBRANCH  34  37
ENDBRANCH   1  34
TORSDOF 9
ENDMDL
MODEL 2
REMARK VINA RESULT:     -10.7      3.396     12.244
REMARK SMILES Nc1ncnc2c1ccn2[C@@H]1C[C@H](CCc2ccc3ccc(Nc4ccccc4)nc3c2)[C@@H](O)[C@H]1O
REMARK SMILES IDX 14 1 13 4 11 5 12 6 35 7 33 11 10 15 2 16 3 17 7 18 4 19
REMARK SMILES IDX 6 20 8 21 5 22 9 24 1 27 36 30 34 32 15 34 16 37 17 38 32 39
REMARK SMILES IDX 18 40 31 42 19 44 30 46 20 47 22 48 21 49 23 52 24 54 25 55
REMARK SMILES IDX 29 56 26 57 28 59 27 61
REMARK H PARENT 14 2 14 3 11 8 12 9 12 10 35 12 13 13 33 14 4 23 8 25 9 26
REMARK H PARENT 1 28 1 29 36 31 34 33 15 35 15 36 17 41 32 43 18 45 20 50
REMARK H PARENT 21 51 23 53 25 58 29 60 26 62 28 63 27 64
REMARK Flexibility Score: inf
ROOT
ATOM      1  C   UNL     1     -45.564  36.053  28.151  1.00  0.00    -0.044 C 
ATOM      2  H   UNL     1     -44.596  36.119  28.667  1.00  0.00     0.027 H 
ATOM      3  H   UNL     1     -45.342  36.125  27.078  1.00  0.00     0.027 H 
ENDROOT
BRANCH   1   4
ATOM      4  C   UNL     1     -46.439  37.247  28.579  1.00  0.00    -0.010 C 
ATOM      5  C   UNL     1     -45.820  39.586  27.948  1.00  0.00     0.064 C 
ATOM      6  C   UNL     1     -45.549  38.454  28.967  1.00  0.00    -0.024 C 
ATOM      7  C   UNL     1     -46.461  38.841  26.765  1.00  0.00     0.101 C 
ATOM      8  H   UNL     1     -46.544  40.300  28.368  1.00  0.00     0.056 H 
ATOM      9  H   UNL     1     -44.491  38.168  28.993  1.00  0.00     0.029 H 
ATOM     10  H   UNL     1     -45.806  38.801  29.975  1.00  0.00     0.029 H 
ATOM     11  C   UNL     1     -47.327  37.787  27.458  1.00  0.00     0.085 C 
ATOM     12  H   UNL     1     -45.715  38.357  26.123  1.00  0.00     0.065 H 
ATOM     13  H   UNL     1     -47.038  36.965  29.452  1.00  0.00     0.033 H 
ATOM     14  H   UNL     1     -47.698  37.033  26.761  1.00  0.00     0.063 H 
BRANCH   5  15
ATOM     15  N   UNL     1     -44.638  40.393  27.662  1.00  0.00    -0.327 N 
ATOM     16  C   UNL     1     -42.875  42.918  25.899  1.00  0.00     0.136 A 
ATOM     17  N   UNL     1     -43.784  43.320  24.993  1.00  0.00    -0.219 NA
ATOM     18  C   UNL     1     -43.221  41.906  26.807  1.00  0.00     0.061 A 
ATOM     19  C   UNL     1     -44.999  42.743  25.013  1.00  0.00     0.120 A 
ATOM     20  C   UNL     1     -44.505  41.379  26.707  1.00  0.00     0.145 A 
ATOM     21  C   UNL     1     -42.582  41.245  27.887  1.00  0.00    -0.031 A 
ATOM     22  N   UNL     1     -45.447  41.771  25.830  1.00  0.00    -0.218 NA
ATOM     23  H   UNL     1     -45.705  43.109  24.275  1.00  0.00     0.106 H 
ATOM     24  C   UNL     1     -43.481  40.344  28.413  1.00  0.00     0.007 A 
ATOM     25  H   UNL     1     -41.582  41.430  28.260  1.00  0.00     0.065 H 
ATOM     26  H   UNL     1     -43.389  39.673  29.259  1.00  0.00     0.082 H 
BRANCH  16  27
ATOM     27  N   UNL     1     -41.631  43.530  25.868  1.00  0.00    -0.383 N 
ATOM     28  H   UNL     1     -40.856  42.938  26.133  1.00  0.00     0.158 HD
ATOM     29  H   UNL     1     -41.517  44.072  25.020  1.00  0.00     0.158 HD
ENDBRANCH  16  27
ENDBRANCH   5  15
BRANCH   7  30
ATOM     30  O   UNL     1     -47.303  39.677  25.970  1.00  0.00    -0.388 OA
ATOM     31  H   UNL     1     -46.965  40.587  26.120  1.00  0.00     0.211 HD
ENDBRANCH   7  30
BRANCH  11  32
ATOM     32  O   UNL     1     -48.468  38.426  28.039  1.00  0.00    -0.390 OA
ATOM     33  H   UNL     1     -48.905  37.724  28.566  1.00  0.00     0.211 HD
ENDBRANCH  11  32
ENDBRANCH   1   4
BRANCH   1  34
ATOM     34  C   UNL     1     -46.178  34.671  28.420  1.00  0.00    -0.027 C 
ATOM     35  H   UNL     1     -47.113  34.806  28.981  1.00  0.00     0.032 H 
ATOM     36  H   UNL     1     -45.532  34.081  29.079  1.00  0.00     0.032 H 
BRANCH  34  37
ATOM     37  C   UNL     1     -46.496  33.893  27.168  1.00  0.00    -0.046 A 
ATOM     38  C   UNL     1     -46.158  34.398  25.909  1.00  0.00    -0.058 A 
ATOM     39  C   UNL     1     -47.136  32.645  27.248  1.00  0.00    -0.033 A 
ATOM     40  C   UNL     1     -46.455  33.667  24.761  1.00  0.00    -0.053 A 
ATOM     41  H   UNL     1     -45.663  35.362  25.816  1.00  0.00     0.063 H 
ATOM     42  C   UNL     1     -47.448  31.899  26.118  1.00  0.00     0.073 A 
ATOM     43  H   UNL     1     -47.399  32.231  28.219  1.00  0.00     0.065 H 
ATOM     44  C   UNL     1     -47.098  32.422  24.860  1.00  0.00     0.000 A 
ATOM     45  H   UNL     1     -46.185  34.074  23.789  1.00  0.00     0.063 H 
ATOM     46  N   UNL     1     -48.071  30.715  26.258  1.00  0.00    -0.231 NA
ATOM     47  C   UNL     1     -47.416  31.664  23.731  1.00  0.00    -0.049 A 
ATOM     48  C   UNL     1     -48.369  29.983  25.166  1.00  0.00     0.131 A 
ATOM     49  C   UNL     1     -48.054  30.437  23.887  1.00  0.00    -0.019 A 
ATOM     50  H   UNL     1     -47.175  32.020  22.733  1.00  0.00     0.063 H 
ATOM     51  H   UNL     1     -48.317  29.851  23.013  1.00  0.00     0.066 H 
BRANCH  48  52
ATOM     52  N   UNL     1     -49.026  28.733  25.268  1.00  0.00    -0.340 N 
ATOM     53  H   UNL     1     -49.757  28.683  24.567  1.00  0.00     0.168 HD
BRANCH  52  54
ATOM     54  C   UNL     1     -48.477  27.460  25.536  1.00  0.00     0.040 A 
ATOM     55  C   UNL     1     -47.198  27.076  25.118  1.00  0.00    -0.039 A 
ATOM     56  C   UNL     1     -49.186  26.578  26.369  1.00  0.00    -0.039 A 
ATOM     57  C   UNL     1     -46.667  25.828  25.464  1.00  0.00    -0.060 A 
ATOM     58  H   UNL     1     -46.592  27.747  24.516  1.00  0.00     0.064 H 
ATOM     59  C   UNL     1     -48.659  25.330  26.718  1.00  0.00    -0.060 A 
ATOM     60  H   UNL     1     -50.164  26.853  26.753  1.00  0.00     0.064 H 
ATOM     61  C   UNL     1     -47.400  24.953  26.260  1.00  0.00    -0.062 A 
ATOM     62  H   UNL     1     -45.678  25.551  25.113  1.00  0.00     0.062 H 
ATOM     63  H   UNL     1     -49.231  24.658  27.352  1.00  0.00     0.062 H 
ATOM     64  H   UNL     1     -46.987  23.986  26.529  1.00  0.00     0.062 H 
ENDBRANCH  52  54
ENDBRANCH  48  52
ENDBRANCH  34  37
ENDBRANCH   1  34
TORSDOF 9
ENDMDL
MODEL 3
REMARK VINA RESULT:     -10.4      1.557      2.359
REMARK SMILES Nc1ncnc2c1ccn2[C@@H]1C[C@H](CCc2ccc3ccc(Nc4ccccc4)nc3c2)[C@@H](O)[C@H]1O
REMARK SMILES IDX 14 1 13 4 11 5 12 6 35 7 33 11 10 15 2 16 3 17 7 18 4 19
REMARK SMILES IDX 6 20 8 21 5 22 9 24 1 27 36 30 34 32 15 34 16 37 17 38 32 39
REMARK SMILES IDX 18 40 31 42 19 44 30 46 20 47 22 48 21 49 23 52 24 54 25 55
REMARK SMILES IDX 29 56 26 57 28 59 27 61
REMARK H PARENT 14 2 14 3 11 8 12 9 12 10 35 12 13 13 33 14 4 23 8 25 9 26
REMARK H PARENT 1 28 1 29 36 31 34 33 15 35 15 36 17 41 32 43 18 45 20 50
REMARK H PARENT 21 51 23 53 25 58 29 60 26 62 28 63 27 64
REMARK Flexibility Score: inf
ROOT
ATOM      1  C   UNL     1     -46.481  32.367  24.578  1.00  0.00    -0.044 C 
ATOM      2  H   UNL     1     -45.679  33.047  24.261  1.00  0.00     0.027 H 
ATOM      3  H   UNL     1     -46.014  31.645  25.261  1.00  0.00     0.027 H 
ENDROOT
BRANCH   1   4
ATOM      4  C   UNL     1     -47.027  31.629  23.340  1.00  0.00    -0.010 C 
ATOM      5  C   UNL     1     -47.624  29.204  23.448  1.00  0.00     0.064 C 
ATOM      6  C   UNL     1     -46.449  30.194  23.270  1.00  0.00    -0.024 C 
ATOM      7  C   UNL     1     -48.719  30.075  24.085  1.00  0.00     0.101 C 
ATOM      8  H   UNL     1     -47.964  28.849  22.463  1.00  0.00     0.056 H 
ATOM      9  H   UNL     1     -45.670  30.049  24.029  1.00  0.00     0.029 H 
ATOM     10  H   UNL     1     -45.974  30.027  22.296  1.00  0.00     0.029 H 
ATOM     11  C   UNL     1     -48.540  31.417  23.372  1.00  0.00     0.085 C 
ATOM     12  H   UNL     1     -48.578  30.198  25.166  1.00  0.00     0.065 H 
ATOM     13  H   UNL     1     -46.725  32.167  22.434  1.00  0.00     0.033 H 
ATOM     14  H   UNL     1     -49.108  32.219  23.851  1.00  0.00     0.063 H 
BRANCH   5  15
ATOM     15  N   UNL     1     -47.245  27.988  24.161  1.00  0.00    -0.327 N 
ATOM     16  C   UNL     1     -47.885  25.264  26.342  1.00  0.00     0.136 A 
ATOM     17  N   UNL     1     -49.145  25.509  26.743  1.00  0.00    -0.219 NA
ATOM     18  C   UNL     1     -47.273  26.147  25.442  1.00  0.00     0.061 A 
ATOM     19  C   UNL     1     -49.772  26.587  26.240  1.00  0.00     0.120 A 
ATOM     20  C   UNL     1     -48.026  27.237  25.014  1.00  0.00     0.145 A 
ATOM     21  C   UNL     1     -46.017  26.225  24.786  1.00  0.00    -0.031 A 
ATOM     22  N   UNL     1     -49.295  27.502  25.375  1.00  0.00    -0.218 NA
ATOM     23  H   UNL     1     -50.793  26.739  26.579  1.00  0.00     0.106 H 
ATOM     24  C   UNL     1     -46.036  27.345  23.984  1.00  0.00     0.007 A 
ATOM     25  H   UNL     1     -45.199  25.521  24.867  1.00  0.00     0.065 H 
ATOM     26  H   UNL     1     -45.287  27.735  23.305  1.00  0.00     0.082 H 
BRANCH  16  27
ATOM     27  N   UNL     1     -47.258  24.142  26.866  1.00  0.00    -0.383 N 
ATOM     28  H   UNL     1     -46.530  24.334  27.540  1.00  0.00     0.158 HD
ATOM     29  H   UNL     1     -47.937  23.436  27.121  1.00  0.00     0.158 HD
ENDBRANCH  16  27
ENDBRANCH   5  15
BRANCH   7  30
ATOM     30  O   UNL     1     -50.037  29.591  23.829  1.00  0.00    -0.388 OA
ATOM     31  H   UNL     1     -50.236  28.993  24.582  1.00  0.00     0.211 HD
ENDBRANCH   7  30
BRANCH  11  32
ATOM     32  O   UNL     1     -49.020  31.302  22.030  1.00  0.00    -0.390 OA
ATOM     33  H   UNL     1     -48.690  32.107  21.576  1.00  0.00     0.211 HD
ENDBRANCH  11  32
ENDBRANCH   1   4
BRANCH   1  34
ATOM     34  C   UNL     1     -47.528  33.165  25.369  1.00  0.00    -0.027 C 
ATOM     35  H   UNL     1     -48.161  32.460  25.925  1.00  0.00     0.032 H 
ATOM     36  H   UNL     1     -48.211  33.688  24.691  1.00  0.00     0.032 H 
BRANCH  34  37
ATOM     37  C   UNL     1     -46.933  34.134  26.359  1.00  0.00    -0.046 A 
ATOM     38  C   UNL     1     -46.372  33.677  27.555  1.00  0.00    -0.058 A 
ATOM     39  C   UNL     1     -46.931  35.513  26.093  1.00  0.00    -0.033 A 
ATOM     40  C   UNL     1     -45.823  34.584  28.460  1.00  0.00    -0.053 A 
ATOM     41  H   UNL     1     -46.360  32.615  27.789  1.00  0.00     0.063 H 
ATOM     42  C   UNL     1     -46.395  36.438  26.981  1.00  0.00     0.073 A 
ATOM     43  H   UNL     1     -47.355  35.888  25.164  1.00  0.00     0.065 H 
ATOM     44  C   UNL     1     -45.832  35.959  28.179  1.00  0.00     0.000 A 
ATOM     45  H   UNL     1     -45.390  34.211  29.385  1.00  0.00     0.063 H 
ATOM     46  N   UNL     1     -46.431  37.747  26.675  1.00  0.00    -0.231 NA
ATOM     47  C   UNL     1     -45.295  36.897  29.063  1.00  0.00    -0.049 A 
ATOM     48  C   UNL     1     -45.905  38.648  27.529  1.00  0.00     0.131 A 
ATOM     49  C   UNL     1     -45.333  38.248  28.735  1.00  0.00    -0.019 A 
ATOM     50  H   UNL     1     -44.853  36.586  30.006  1.00  0.00     0.063 H 
ATOM     51  H   UNL     1     -44.931  38.983  29.425  1.00  0.00     0.066 H 
BRANCH  48  52
ATOM     52  N   UNL     1     -45.925  40.036  27.248  1.00  0.00    -0.340 N 
ATOM     53  H   UNL     1     -46.601  40.488  27.853  1.00  0.00     0.168 HD
BRANCH  52  54
ATOM     54  C   UNL     1     -44.848  40.896  26.940  1.00  0.00     0.040 A 
ATOM     55  C   UNL     1     -43.634  40.878  27.635  1.00  0.00    -0.039 A 
ATOM     56  C   UNL     1     -44.941  41.720  25.806  1.00  0.00    -0.039 A 
ATOM     57  C   UNL     1     -42.569  41.701  27.253  1.00  0.00    -0.060 A 
ATOM     58  H   UNL     1     -43.497  40.218  28.487  1.00  0.00     0.064 H 
ATOM     59  C   UNL     1     -43.879  42.543  25.420  1.00  0.00    -0.060 A 
ATOM     60  H   UNL     1     -45.850  41.733  25.211  1.00  0.00     0.064 H 
ATOM     61  C   UNL     1     -42.693  42.537  26.147  1.00  0.00    -0.062 A 
ATOM     62  H   UNL     1     -41.642  41.677  27.819  1.00  0.00     0.062 H 
ATOM     63  H   UNL     1     -43.979  43.183  24.547  1.00  0.00     0.062 H 
ATOM     64  H   UNL     1     -41.865  43.174  25.850  1.00  0.00     0.062 H 
ENDBRANCH  52  54
ENDBRANCH  48  52
ENDBRANCH  34  37
ENDBRANCH   1  34
TORSDOF 9
ENDMDL
MODEL 4
REMARK VINA RESULT:     -10.3      3.674     12.260
REMARK SMILES Nc1ncnc2c1ccn2[C@@H]1C[C@H](CCc2ccc3ccc(Nc4ccccc4)nc3c2)[C@@H](O)[C@H]1O
REMARK SMILES IDX 14 1 13 4 11 5 12 6 35 7 33 11 10 15 2 16 3 17 7 18 4 19
REMARK SMILES IDX 6 20 8 21 5 22 9 24 1 27 36 30 34 32 15 34 16 37 17 38 32 39
REMARK SMILES IDX 18 40 31 42 19 44 30 46 20 47 22 48 21 49 23 52 24 54 25 55
REMARK SMILES IDX 29 56 26 57 28 59 27 61
REMARK H PARENT 14 2 14 3 11 8 12 9 12 10 35 12 13 13 33 14 4 23 8 25 9 26
REMARK H PARENT 1 28 1 29 36 31 34 33 15 35 15 36 17 41 32 43 18 45 20 50
REMARK H PARENT 21 51 23 53 25 58 29 60 26 62 28 63 27 64
REMARK Flexibility Score: inf
ROOT
ATOM      1  C   UNL     1     -45.891  36.168  27.357  1.00  0.00    -0.044 C 
ATOM      2  H   UNL     1     -45.188  36.361  26.534  1.00  0.00     0.027 H 
ATOM      3  H   UNL     1     -46.880  36.467  26.987  1.00  0.00     0.027 H 
ENDROOT
BRANCH   1   4
ATOM      4  C   UNL     1     -45.501  37.047  28.561  1.00  0.00    -0.010 C 
ATOM      5  C   UNL     1     -45.411  39.538  28.359  1.00  0.00     0.064 C 
ATOM      6  C   UNL     1     -44.620  38.234  28.098  1.00  0.00    -0.024 C 
ATOM      7  C   UNL     1     -46.860  39.042  28.496  1.00  0.00     0.101 C 
ATOM      8  H   UNL     1     -45.085  39.987  29.309  1.00  0.00     0.056 H 
ATOM      9  H   UNL     1     -44.341  38.126  27.043  1.00  0.00     0.029 H 
ATOM     10  H   UNL     1     -43.685  38.253  28.671  1.00  0.00     0.029 H 
ATOM     11  C   UNL     1     -46.695  37.716  29.241  1.00  0.00     0.085 C 
ATOM     12  H   UNL     1     -47.337  38.874  27.523  1.00  0.00     0.065 H 
ATOM     13  H   UNL     1     -44.926  36.449  29.277  1.00  0.00     0.033 H 
ATOM     14  H   UNL     1     -47.614  37.126  29.243  1.00  0.00     0.063 H 
BRANCH   5  15
ATOM     15  N   UNL     1     -45.155  40.572  27.361  1.00  0.00    -0.327 N 
ATOM     16  C   UNL     1     -43.081  42.905  25.675  1.00  0.00     0.136 A 
ATOM     17  N   UNL     1     -41.918  42.784  26.340  1.00  0.00    -0.219 NA
ATOM     18  C   UNL     1     -44.171  42.111  26.062  1.00  0.00     0.061 A 
ATOM     19  C   UNL     1     -41.847  41.885  27.337  1.00  0.00     0.120 A 
ATOM     20  C   UNL     1     -43.970  41.236  27.124  1.00  0.00     0.145 A 
ATOM     21  C   UNL     1     -45.507  41.931  25.619  1.00  0.00    -0.031 A 
ATOM     22  N   UNL     1     -42.816  41.071  27.796  1.00  0.00    -0.218 NA
ATOM     23  H   UNL     1     -40.885  41.809  27.835  1.00  0.00     0.106 H 
ATOM     24  C   UNL     1     -46.079  40.961  26.412  1.00  0.00     0.007 A 
ATOM     25  H   UNL     1     -45.989  42.434  24.791  1.00  0.00     0.065 H 
ATOM     26  H   UNL     1     -47.068  40.520  26.377  1.00  0.00     0.082 H 
BRANCH  16  27
ATOM     27  N   UNL     1     -43.132  43.831  24.644  1.00  0.00    -0.383 N 
ATOM     28  H   UNL     1     -42.328  44.439  24.575  1.00  0.00     0.158 HD
ATOM     29  H   UNL     1     -43.447  43.397  23.785  1.00  0.00     0.158 HD
ENDBRANCH  16  27
ENDBRANCH   5  15
BRANCH   7  30
ATOM     30  O   UNL     1     -47.675  39.913  29.282  1.00  0.00    -0.388 OA
ATOM     31  H   UNL     1     -47.391  40.818  29.029  1.00  0.00     0.211 HD
ENDBRANCH   7  30
BRANCH  11  32
ATOM     32  O   UNL     1     -46.361  37.983  30.606  1.00  0.00    -0.390 OA
ATOM     33  H   UNL     1     -45.505  38.461  30.565  1.00  0.00     0.211 HD
ENDBRANCH  11  32
ENDBRANCH   1   4
BRANCH   1  34
ATOM     34  C   UNL     1     -45.923  34.659  27.640  1.00  0.00    -0.027 C 
ATOM     35  H   UNL     1     -46.077  34.507  28.717  1.00  0.00     0.032 H 
ATOM     36  H   UNL     1     -44.950  34.203  27.425  1.00  0.00     0.032 H 
BRANCH  34  37
ATOM     37  C   UNL     1     -47.017  33.926  26.907  1.00  0.00    -0.046 A 
ATOM     38  C   UNL     1     -48.269  34.516  26.718  1.00  0.00    -0.058 A 
ATOM     39  C   UNL     1     -46.793  32.636  26.398  1.00  0.00    -0.033 A 
ATOM     40  C   UNL     1     -49.270  33.828  26.036  1.00  0.00    -0.053 A 
ATOM     41  H   UNL     1     -48.472  35.514  27.102  1.00  0.00     0.063 H 
ATOM     42  C   UNL     1     -47.775  31.926  25.719  1.00  0.00     0.073 A 
ATOM     43  H   UNL     1     -45.821  32.162  26.526  1.00  0.00     0.065 H 
ATOM     44  C   UNL     1     -49.029  32.538  25.537  1.00  0.00     0.000 A 
ATOM     45  H   UNL     1     -50.239  34.302  25.898  1.00  0.00     0.063 H 
ATOM     46  N   UNL     1     -47.504  30.690  25.263  1.00  0.00    -0.231 NA
ATOM     47  C   UNL     1     -50.010  31.816  24.852  1.00  0.00    -0.049 A 
ATOM     48  C   UNL     1     -48.452  30.000  24.597  1.00  0.00     0.131 A 
ATOM     49  C   UNL     1     -49.717  30.541  24.380  1.00  0.00    -0.019 A 
ATOM     50  H   UNL     1     -50.999  32.236  24.687  1.00  0.00     0.063 H 
ATOM     51  H   UNL     1     -50.480  29.970  23.861  1.00  0.00     0.066 H 
BRANCH  48  52
ATOM     52  N   UNL     1     -48.209  28.695  24.104  1.00  0.00    -0.340 N 
ATOM     53  H   UNL     1     -47.637  28.756  23.269  1.00  0.00     0.168 HD
BRANCH  52  54
ATOM     54  C   UNL     1     -47.952  27.508  24.823  1.00  0.00     0.040 A 
ATOM     55  C   UNL     1     -48.951  26.775  25.473  1.00  0.00    -0.039 A 
ATOM     56  C   UNL     1     -46.659  26.959  24.784  1.00  0.00    -0.039 A 
ATOM     57  C   UNL     1     -48.662  25.568  26.117  1.00  0.00    -0.060 A 
ATOM     58  H   UNL     1     -49.976  27.135  25.484  1.00  0.00     0.064 H 
ATOM     59  C   UNL     1     -46.365  25.751  25.426  1.00  0.00    -0.060 A 
ATOM     60  H   UNL     1     -45.861  27.472  24.253  1.00  0.00     0.064 H 
ATOM     61  C   UNL     1     -47.367  25.058  26.097  1.00  0.00    -0.062 A 
ATOM     62  H   UNL     1     -49.454  25.028  26.626  1.00  0.00     0.062 H 
ATOM     63  H   UNL     1     -45.354  25.353  25.394  1.00  0.00     0.062 H 
ATOM     64  H   UNL     1     -47.143  24.120  26.597  1.00  0.00     0.062 H 
ENDBRANCH  52  54
ENDBRANCH  48  52
ENDBRANCH  34  37
ENDBRANCH   1  34
TORSDOF 9
ENDMDL
MODEL 5
REMARK VINA RESULT:     -10.0      3.472     12.103
REMARK SMILES Nc1ncnc2c1ccn2[C@@H]1C[C@H](CCc2ccc3ccc(Nc4ccccc4)nc3c2)[C@@H](O)[C@H]1O
REMARK SMILES IDX 14 1 13 4 11 5 12 6 35 7 33 11 10 15 2 16 3 17 7 18 4 19
REMARK SMILES IDX 6 20 8 21 5 22 9 24 1 27 36 30 34 32 15 34 16 37 17 38 32 39
REMARK SMILES IDX 18 40 31 42 19 44 30 46 20 47 22 48 21 49 23 52 24 54 25 55
REMARK SMILES IDX 29 56 26 57 28 59 27 61
REMARK H PARENT 14 2 14 3 11 8 12 9 12 10 35 12 13 13 33 14 4 23 8 25 9 26
REMARK H PARENT 1 28 1 29 36 31 34 33 15 35 15 36 17 41 32 43 18 45 20 50
REMARK H PARENT 21 51 23 53 25 58 29 60 26 62 28 63 27 64
REMARK Flexibility Score: inf
ROOT
ATOM      1  C   UNL     1     -48.445  36.201  27.047  1.00  0.00    -0.044 C 
ATOM      2  H   UNL     1     -48.612  36.581  26.030  1.00  0.00     0.027 H 
ATOM      3  H   UNL     1     -49.094  36.794  27.704  1.00  0.00     0.027 H 
ENDROOT
BRANCH   1   4
ATOM      4  C   UNL     1     -46.970  36.436  27.429  1.00  0.00    -0.010 C 
ATOM      5  C   UNL     1     -46.065  38.750  27.706  1.00  0.00     0.064 C 
ATOM      6  C   UNL     1     -46.403  37.657  26.664  1.00  0.00    -0.024 C 
ATOM      7  C   UNL     1     -46.882  38.321  28.936  1.00  0.00     0.101 C 
ATOM      8  H   UNL     1     -44.993  38.715  27.947  1.00  0.00     0.056 H 
ATOM      9  H   UNL     1     -47.117  38.012  25.911  1.00  0.00     0.029 H 
ATOM     10  H   UNL     1     -45.492  37.372  26.125  1.00  0.00     0.029 H 
ATOM     11  C   UNL     1     -46.770  36.795  28.901  1.00  0.00     0.085 C 
ATOM     12  H   UNL     1     -47.934  38.625  28.866  1.00  0.00     0.065 H 
ATOM     13  H   UNL     1     -46.379  35.553  27.157  1.00  0.00     0.033 H 
ATOM     14  H   UNL     1     -47.466  36.313  29.592  1.00  0.00     0.063 H 
BRANCH   5  15
ATOM     15  N   UNL     1     -46.282  40.104  27.205  1.00  0.00    -0.327 N 
ATOM     16  C   UNL     1     -45.195  43.174  25.798  1.00  0.00     0.136 A 
ATOM     17  N   UNL     1     -43.865  42.992  25.710  1.00  0.00    -0.219 NA
ATOM     18  C   UNL     1     -45.990  42.141  26.316  1.00  0.00     0.061 A 
ATOM     19  C   UNL     1     -43.359  41.810  26.105  1.00  0.00     0.120 A 
ATOM     20  C   UNL     1     -45.338  40.977  26.708  1.00  0.00     0.145 A 
ATOM     21  C   UNL     1     -47.376  41.939  26.542  1.00  0.00    -0.031 A 
ATOM     22  N   UNL     1     -44.014  40.750  26.614  1.00  0.00    -0.218 NA
ATOM     23  H   UNL     1     -42.284  41.701  26.003  1.00  0.00     0.106 H 
ATOM     24  C   UNL     1     -47.532  40.673  27.060  1.00  0.00     0.007 A 
ATOM     25  H   UNL     1     -48.177  42.633  26.322  1.00  0.00     0.065 H 
ATOM     26  H   UNL     1     -48.429  40.133  27.337  1.00  0.00     0.082 H 
BRANCH  16  27
ATOM     27  N   UNL     1     -45.699  44.396  25.377  1.00  0.00    -0.383 N 
ATOM     28  H   UNL     1     -45.640  44.564  24.383  1.00  0.00     0.158 HD
ATOM     29  H   UNL     1     -46.591  44.588  25.817  1.00  0.00     0.158 HD
ENDBRANCH  16  27
ENDBRANCH   5  15
BRANCH   7  30
ATOM     30  O   UNL     1     -46.331  38.795  30.164  1.00  0.00    -0.388 OA
ATOM     31  H   UNL     1     -45.421  38.427  30.189  1.00  0.00     0.211 HD
ENDBRANCH   7  30
BRANCH  11  32
ATOM     32  O   UNL     1     -45.449  36.413  29.296  1.00  0.00    -0.390 OA
ATOM     33  H   UNL     1     -45.548  36.084  30.214  1.00  0.00     0.211 HD
ENDBRANCH  11  32
ENDBRANCH   1   4
BRANCH   1  34
ATOM     34  C   UNL     1     -48.906  34.738  27.114  1.00  0.00    -0.027 C 
ATOM     35  H   UNL     1     -49.970  34.692  26.846  1.00  0.00     0.032 H 
ATOM     36  H   UNL     1     -48.854  34.361  28.141  1.00  0.00     0.032 H 
BRANCH  34  37
ATOM     37  C   UNL     1     -48.153  33.820  26.184  1.00  0.00    -0.046 A 
ATOM     38  C   UNL     1     -47.016  34.268  25.506  1.00  0.00    -0.058 A 
ATOM     39  C   UNL     1     -48.582  32.497  25.987  1.00  0.00    -0.033 A 
ATOM     40  C   UNL     1     -46.329  33.408  24.651  1.00  0.00    -0.053 A 
ATOM     41  H   UNL     1     -46.661  35.288  25.638  1.00  0.00     0.063 H 
ATOM     42  C   UNL     1     -47.918  31.621  25.137  1.00  0.00     0.073 A 
ATOM     43  H   UNL     1     -49.460  32.126  26.513  1.00  0.00     0.065 H 
ATOM     44  C   UNL     1     -46.774  32.090  24.464  1.00  0.00     0.000 A 
ATOM     45  H   UNL     1     -45.446  33.773  24.131  1.00  0.00     0.063 H 
ATOM     46  N   UNL     1     -48.382  30.369  24.981  1.00  0.00    -0.231 NA
ATOM     47  C   UNL     1     -46.113  31.202  23.613  1.00  0.00    -0.049 A 
ATOM     48  C   UNL     1     -47.737  29.513  24.164  1.00  0.00     0.131 A 
ATOM     49  C   UNL     1     -46.599  29.906  23.464  1.00  0.00    -0.019 A 
ATOM     50  H   UNL     1     -45.228  31.509  23.062  1.00  0.00     0.063 H 
ATOM     51  H   UNL     1     -46.099  29.217  22.791  1.00  0.00     0.066 H 
BRANCH  48  52
ATOM     52  N   UNL     1     -48.194  28.187  23.969  1.00  0.00    -0.340 N 
ATOM     53  H   UNL     1     -47.993  27.902  23.016  1.00  0.00     0.168 HD
BRANCH  52  54
ATOM     54  C   UNL     1     -48.146  27.091  24.858  1.00  0.00     0.040 A 
ATOM     55  C   UNL     1     -49.290  26.438  25.328  1.00  0.00    -0.039 A 
ATOM     56  C   UNL     1     -46.896  26.543  25.191  1.00  0.00    -0.039 A 
ATOM     57  C   UNL     1     -49.193  25.313  26.155  1.00  0.00    -0.060 A 
ATOM     58  H   UNL     1     -50.279  26.794  25.054  1.00  0.00     0.064 H 
ATOM     59  C   UNL     1     -46.794  25.419  26.016  1.00  0.00    -0.060 A 
ATOM     60  H   UNL     1     -45.982  26.993  24.812  1.00  0.00     0.064 H 
ATOM     61  C   UNL     1     -47.945  24.806  26.503  1.00  0.00    -0.062 A 
ATOM     62  H   UNL     1     -50.098  24.834  26.517  1.00  0.00     0.062 H 
ATOM     63  H   UNL     1     -45.816  25.020  26.272  1.00  0.00     0.062 H 
ATOM     64  H   UNL     1     -47.871  23.932  27.144  1.00  0.00     0.062 H 
ENDBRANCH  52  54
ENDBRANCH  48  52
ENDBRANCH  34  37
ENDBRANCH   1  34
TORSDOF 9
ENDMDL
MODEL 6
REMARK VINA RESULT:      -9.9      3.054      4.950
REMARK SMILES Nc1ncnc2c1ccn2[C@@H]1C[C@H](CCc2ccc3ccc(Nc4ccccc4)nc3c2)[C@@H](O)[C@H]1O
REMARK SMILES IDX 14 1 13 4 11 5 12 6 35 7 33 11 10 15 2 16 3 17 7 18 4 19
REMARK SMILES IDX 6 20 8 21 5 22 9 24 1 27 36 30 34 32 15 34 16 37 17 38 32 39
REMARK SMILES IDX 18 40 31 42 19 44 30 46 20 47 22 48 21 49 23 52 24 54 25 55
REMARK SMILES IDX 29 56 26 57 28 59 27 61
REMARK H PARENT 14 2 14 3 11 8 12 9 12 10 35 12 13 13 33 14 4 23 8 25 9 26
REMARK H PARENT 1 28 1 29 36 31 34 33 15 35 15 36 17 41 32 43 18 45 20 50
REMARK H PARENT 21 51 23 53 25 58 29 60 26 62 28 63 27 64
REMARK Flexibility Score: inf
ROOT
ATOM      1  C   UNL     1     -47.744  35.570  26.425  1.00  0.00    -0.044 C 
ATOM      2  H   UNL     1     -48.523  35.596  25.651  1.00  0.00     0.027 H 
ATOM      3  H   UNL     1     -46.806  35.842  25.923  1.00  0.00     0.027 H 
ENDROOT
BRANCH   1   4
ATOM      4  C   UNL     1     -47.638  34.134  26.976  1.00  0.00    -0.010 C 
ATOM      5  C   UNL     1     -48.061  32.158  25.504  1.00  0.00     0.064 C 
ATOM      6  C   UNL     1     -48.748  33.241  26.369  1.00  0.00    -0.024 C 
ATOM      7  C   UNL     1     -46.663  32.748  25.255  1.00  0.00     0.101 C 
ATOM      8  H   UNL     1     -47.969  31.225  26.080  1.00  0.00     0.056 H 
ATOM      9  H   UNL     1     -49.459  33.842  25.789  1.00  0.00     0.029 H 
ATOM     10  H   UNL     1     -49.322  32.760  27.170  1.00  0.00     0.029 H 
ATOM     11  C   UNL     1     -46.340  33.426  26.588  1.00  0.00     0.085 C 
ATOM     12  H   UNL     1     -46.660  33.486  24.444  1.00  0.00     0.065 H 
ATOM     13  H   UNL     1     -47.765  34.152  28.064  1.00  0.00     0.033 H 
ATOM     14  H   UNL     1     -45.463  34.074  26.520  1.00  0.00     0.063 H 
BRANCH   5  15
ATOM     15  N   UNL     1     -48.842  31.784  24.329  1.00  0.00    -0.327 N 
ATOM     16  C   UNL     1     -49.320  30.086  21.251  1.00  0.00     0.136 A 
ATOM     17  N   UNL     1     -48.125  29.500  21.060  1.00  0.00    -0.219 NA
ATOM     18  C   UNL     1     -49.522  30.861  22.402  1.00  0.00     0.061 A 
ATOM     19  C   UNL     1     -47.179  29.668  22.000  1.00  0.00     0.120 A 
ATOM     20  C   UNL     1     -48.453  30.971  23.286  1.00  0.00     0.145 A 
ATOM     21  C   UNL     1     -50.601  31.595  22.960  1.00  0.00    -0.031 A 
ATOM     22  N   UNL     1     -47.252  30.381  23.140  1.00  0.00    -0.218 NA
ATOM     23  H   UNL     1     -46.235  29.165  21.813  1.00  0.00     0.106 H 
ATOM     24  C   UNL     1     -50.168  32.126  24.154  1.00  0.00     0.007 A 
ATOM     25  H   UNL     1     -51.597  31.698  22.547  1.00  0.00     0.065 H 
ATOM     26  H   UNL     1     -50.697  32.719  24.891  1.00  0.00     0.082 H 
BRANCH  16  27
ATOM     27  N   UNL     1     -50.287  29.894  20.274  1.00  0.00    -0.383 N 
ATOM     28  H   UNL     1     -50.010  30.164  19.340  1.00  0.00     0.158 HD
ATOM     29  H   UNL     1     -50.724  28.987  20.373  1.00  0.00     0.158 HD
ENDBRANCH  16  27
ENDBRANCH   5  15
BRANCH   7  30
ATOM     30  O   UNL     1     -45.675  31.750  24.995  1.00  0.00    -0.388 OA
ATOM     31  H   UNL     1     -45.484  31.831  24.035  1.00  0.00     0.211 HD
ENDBRANCH   7  30
BRANCH  11  32
ATOM     32  O   UNL     1     -46.050  32.423  27.566  1.00  0.00    -0.390 OA
ATOM     33  H   UNL     1     -46.485  32.739  28.385  1.00  0.00     0.211 HD
ENDBRANCH  11  32
ENDBRANCH   1   4
BRANCH   1  34
ATOM     34  C   UNL     1     -48.052  36.645  27.477  1.00  0.00    -0.027 C 
ATOM     35  H   UNL     1     -48.326  36.148  28.418  1.00  0.00     0.032 H 
ATOM     36  H   UNL     1     -48.937  37.224  27.192  1.00  0.00     0.032 H 
BRANCH  34  37
ATOM     37  C   UNL     1     -46.894  37.568  27.760  1.00  0.00    -0.046 A 
ATOM     38  C   UNL     1     -46.117  37.405  28.911  1.00  0.00    -0.058 A 
ATOM     39  C   UNL     1     -46.575  38.606  26.869  1.00  0.00    -0.033 A 
ATOM     40  C   UNL     1     -45.048  38.264  29.159  1.00  0.00    -0.053 A 
ATOM     41  H   UNL     1     -46.341  36.611  29.620  1.00  0.00     0.063 H 
ATOM     42  C   UNL     1     -45.518  39.479  27.096  1.00  0.00     0.073 A 
ATOM     43  H   UNL     1     -47.162  38.744  25.963  1.00  0.00     0.065 H 
ATOM     44  C   UNL     1     -44.746  39.298  28.258  1.00  0.00     0.000 A 
ATOM     45  H   UNL     1     -44.453  38.123  30.058  1.00  0.00     0.063 H 
ATOM     46  N   UNL     1     -45.268  40.460  26.210  1.00  0.00    -0.231 NA
ATOM     47  C   UNL     1     -43.685  40.180  28.476  1.00  0.00    -0.049 A 
ATOM     48  C   UNL     1     -44.238  41.304  26.421  1.00  0.00     0.131 A 
ATOM     49  C   UNL     1     -43.431  41.187  27.551  1.00  0.00    -0.019 A 
ATOM     50  H   UNL     1     -43.058  40.092  29.359  1.00  0.00     0.063 H 
ATOM     51  H   UNL     1     -42.618  41.885  27.722  1.00  0.00     0.066 H 
BRANCH  48  52
ATOM     52  N   UNL     1     -43.943  42.353  25.517  1.00  0.00    -0.340 N 
ATOM     53  H   UNL     1     -43.850  41.970  24.582  1.00  0.00     0.168 HD
BRANCH  52  54
ATOM     54  C   UNL     1     -44.449  43.671  25.489  1.00  0.00     0.040 A 
ATOM     55  C   UNL     1     -43.631  44.805  25.514  1.00  0.00    -0.039 A 
ATOM     56  C   UNL     1     -45.828  43.862  25.297  1.00  0.00    -0.039 A 
ATOM     57  C   UNL     1     -44.173  46.091  25.416  1.00  0.00    -0.060 A 
ATOM     58  H   UNL     1     -42.553  44.703  25.608  1.00  0.00     0.064 H 
ATOM     59  C   UNL     1     -46.374  45.146  25.198  1.00  0.00    -0.060 A 
ATOM     60  H   UNL     1     -46.496  43.008  25.227  1.00  0.00     0.064 H 
ATOM     61  C   UNL     1     -45.545  46.262  25.263  1.00  0.00    -0.062 A 
ATOM     62  H   UNL     1     -43.515  46.955  25.453  1.00  0.00     0.062 H 
ATOM     63  H   UNL     1     -47.445  45.271  25.064  1.00  0.00     0.062 H 
ATOM     64  H   UNL     1     -45.965  47.261  25.185  1.00  0.00     0.062 H 
ENDBRANCH  52  54
ENDBRANCH  48  52
ENDBRANCH  34  37
ENDBRANCH   1  34
TORSDOF 9
ENDMDL
MODEL 7
REMARK VINA RESULT:      -9.9      1.542      2.180
REMARK SMILES Nc1ncnc2c1ccn2[C@@H]1C[C@H](CCc2ccc3ccc(Nc4ccccc4)nc3c2)[C@@H](O)[C@H]1O
REMARK SMILES IDX 14 1 13 4 11 5 12 6 35 7 33 11 10 15 2 16 3 17 7 18 4 19
REMARK SMILES IDX 6 20 8 21 5 22 9 24 1 27 36 30 34 32 15 34 16 37 17 38 32 39
REMARK SMILES IDX 18 40 31 42 19 44 30 46 20 47 22 48 21 49 23 52 24 54 25 55
REMARK SMILES IDX 29 56 26 57 28 59 27 61
REMARK H PARENT 14 2 14 3 11 8 12 9 12 10 35 12 13 13 33 14 4 23 8 25 9 26
REMARK H PARENT 1 28 1 29 36 31 34 33 15 35 15 36 17 41 32 43 18 45 20 50
REMARK H PARENT 21 51 23 53 25 58 29 60 26 62 28 63 27 64
REMARK Flexibility Score: inf
ROOT
ATOM      1  C   UNL     1     -47.574  32.339  25.338  1.00  0.00    -0.044 C 
ATOM      2  H   UNL     1     -47.102  31.573  25.969  1.00  0.00     0.027 H 
ATOM      3  H   UNL     1     -48.467  32.674  25.883  1.00  0.00     0.027 H 
ENDROOT
BRANCH   1   4
ATOM      4  C   UNL     1     -47.996  31.693  24.003  1.00  0.00    -0.010 C 
ATOM      5  C   UNL     1     -48.956  29.386  23.938  1.00  0.00     0.064 C 
ATOM      6  C   UNL     1     -47.634  30.188  23.996  1.00  0.00    -0.024 C 
ATOM      7  C   UNL     1     -50.005  30.412  24.399  1.00  0.00     0.101 C 
ATOM      8  H   UNL     1     -49.165  29.087  22.900  1.00  0.00     0.056 H 
ATOM      9  H   UNL     1     -47.032  29.926  24.874  1.00  0.00     0.029 H 
ATOM     10  H   UNL     1     -47.025  29.952  23.115  1.00  0.00     0.029 H 
ATOM     11  C   UNL     1     -49.506  31.712  23.765  1.00  0.00     0.085 C 
ATOM     12  H   UNL     1     -50.040  30.511  25.490  1.00  0.00     0.065 H 
ATOM     13  H   UNL     1     -47.463  32.181  23.179  1.00  0.00     0.033 H 
ATOM     14  H   UNL     1     -50.023  32.590  24.160  1.00  0.00     0.063 H 
BRANCH   5  15
ATOM     15  N   UNL     1     -48.894  28.126  24.673  1.00  0.00    -0.327 N 
ATOM     16  C   UNL     1     -47.232  25.216  25.838  1.00  0.00     0.136 A 
ATOM     17  N   UNL     1     -46.020  25.332  25.266  1.00  0.00    -0.219 NA
ATOM     18  C   UNL     1     -48.190  26.213  25.608  1.00  0.00     0.061 A 
ATOM     19  C   UNL     1     -45.775  26.418  24.513  1.00  0.00     0.120 A 
ATOM     20  C   UNL     1     -47.815  27.275  24.791  1.00  0.00     0.145 A 
ATOM     21  C   UNL     1     -49.523  26.461  26.029  1.00  0.00    -0.031 A 
ATOM     22  N   UNL     1     -46.607  27.436  24.222  1.00  0.00    -0.218 NA
ATOM     23  H   UNL     1     -44.779  26.479  24.084  1.00  0.00     0.106 H 
ATOM     24  C   UNL     1     -49.920  27.654  25.466  1.00  0.00     0.007 A 
ATOM     25  H   UNL     1     -50.117  25.850  26.696  1.00  0.00     0.065 H 
ATOM     26  H   UNL     1     -50.850  28.202  25.566  1.00  0.00     0.082 H 
BRANCH  16  27
ATOM     27  N   UNL     1     -47.463  24.092  26.618  1.00  0.00    -0.383 N 
ATOM     28  H   UNL     1     -46.948  24.062  27.487  1.00  0.00     0.158 HD
ATOM     29  H   UNL     1     -48.453  23.887  26.670  1.00  0.00     0.158 HD
ENDBRANCH  16  27
ENDBRANCH   5  15
BRANCH   7  30
ATOM     30  O   UNL     1     -51.314  30.132  23.903  1.00  0.00    -0.388 OA
ATOM     31  H   UNL     1     -51.705  29.517  24.561  1.00  0.00     0.211 HD
ENDBRANCH   7  30
BRANCH  11  32
ATOM     32  O   UNL     1     -49.753  31.673  22.357  1.00  0.00    -0.390 OA
ATOM     33  H   UNL     1     -48.867  31.570  21.951  1.00  0.00     0.211 HD
ENDBRANCH  11  32
ENDBRANCH   1   4
BRANCH   1  34
ATOM     34  C   UNL     1     -46.619  33.534  25.205  1.00  0.00    -0.027 C 
ATOM     35  H   UNL     1     -46.672  33.914  24.176  1.00  0.00     0.032 H 
ATOM     36  H   UNL     1     -45.579  33.215  25.338  1.00  0.00     0.032 H 
BRANCH  34  37
ATOM     37  C   UNL     1     -46.938  34.674  26.139  1.00  0.00    -0.046 A 
ATOM     38  C   UNL     1     -48.263  35.022  26.412  1.00  0.00    -0.058 A 
ATOM     39  C   UNL     1     -45.905  35.403  26.751  1.00  0.00    -0.033 A 
ATOM     40  C   UNL     1     -48.544  36.076  27.279  1.00  0.00    -0.053 A 
ATOM     41  H   UNL     1     -49.084  34.476  25.952  1.00  0.00     0.063 H 
ATOM     42  C   UNL     1     -46.158  36.462  27.615  1.00  0.00     0.073 A 
ATOM     43  H   UNL     1     -44.867  35.142  26.558  1.00  0.00     0.065 H 
ATOM     44  C   UNL     1     -47.499  36.797  27.880  1.00  0.00     0.000 A 
ATOM     45  H   UNL     1     -49.581  36.334  27.481  1.00  0.00     0.063 H 
ATOM     46  N   UNL     1     -45.127  37.129  28.163  1.00  0.00    -0.231 NA
ATOM     47  C   UNL     1     -47.742  37.862  28.750  1.00  0.00    -0.049 A 
ATOM     48  C   UNL     1     -45.367  38.152  29.009  1.00  0.00     0.131 A 
ATOM     49  C   UNL     1     -46.668  38.542  29.317  1.00  0.00    -0.019 A 
ATOM     50  H   UNL     1     -48.757  38.169  28.987  1.00  0.00     0.063 H 
ATOM     51  H   UNL     1     -46.851  39.380  29.981  1.00  0.00     0.066 H 
BRANCH  48  52
ATOM     52  N   UNL     1     -44.311  38.884  29.605  1.00  0.00    -0.340 N 
ATOM     53  H   UNL     1     -43.761  38.261  30.186  1.00  0.00     0.168 HD
BRANCH  52  54
ATOM     54  C   UNL     1     -43.516  39.909  29.047  1.00  0.00     0.040 A 
ATOM     55  C   UNL     1     -43.827  40.548  27.843  1.00  0.00    -0.039 A 
ATOM     56  C   UNL     1     -42.432  40.406  29.791  1.00  0.00    -0.039 A 
ATOM     57  C   UNL     1     -43.048  41.606  27.362  1.00  0.00    -0.060 A 
ATOM     58  H   UNL     1     -44.687  40.233  27.259  1.00  0.00     0.064 H 
ATOM     59  C   UNL     1     -41.650  41.463  29.315  1.00  0.00    -0.060 A 
ATOM     60  H   UNL     1     -42.181  39.968  30.753  1.00  0.00     0.064 H 
ATOM     61  C   UNL     1     -41.956  42.061  28.096  1.00  0.00    -0.062 A 
ATOM     62  H   UNL     1     -43.304  42.074  26.416  1.00  0.00     0.062 H 
ATOM     63  H   UNL     1     -40.808  41.822  29.900  1.00  0.00     0.062 H 
ATOM     64  H   UNL     1     -41.352  42.882  27.722  1.00  0.00     0.062 H 
ENDBRANCH  52  54
ENDBRANCH  48  52
ENDBRANCH  34  37
ENDBRANCH   1  34
TORSDOF 9
ENDMDL
