MODEL 1
REMARK VINA RESULT:     -10.6      0.000      0.000
REMARK SMILES CNc1ccc2ccc(OCc3cccc(-n4cc(Cl)c5c(N)ncnc54)c3)cc2n1
REMARK SMILES IDX 11 1 10 4 9 5 3 6 4 7 31 8 5 9 30 11 6 12 29 14 7 15 8 17
REMARK SMILES IDX 2 20 1 22 12 26 13 27 28 28 14 29 16 31 15 33 17 36 18 37
REMARK SMILES IDX 27 38 19 39 21 41 26 42 20 43 22 44 25 45 24 46 23 48
REMARK H PARENT 11 2 11 3 4 10 5 13 29 16 7 18 8 19 2 21 1 23 1 24 1 25 13 30
REMARK H PARENT 28 32 14 34 15 35 18 40 25 47 23 49 23 50
REMARK Flexibility Score: inf
ROOT
ATOM      1  C   UNL     1     -48.306  35.884  27.117  1.00  0.00     0.113 C 
ATOM      2  H   UNL     1     -48.039  36.018  26.061  1.00  0.00     0.076 H 
ATOM      3  H   UNL     1     -49.309  36.312  27.231  1.00  0.00     0.076 H 
ENDROOT
BRANCH   1   4
ATOM      4  O   UNL     1     -48.323  34.474  27.357  1.00  0.00    -0.489 OA
BRANCH   4   5
ATOM      5  C   UNL     1     -47.804  33.640  26.404  1.00  0.00     0.122 A 
ATOM      6  C   UNL     1     -48.357  29.356  24.404  1.00  0.00     0.126 A 
ATOM      7  C   UNL     1     -47.297  29.564  23.533  1.00  0.00    -0.019 A 
ATOM      8  N   UNL     1     -48.748  30.283  25.297  1.00  0.00    -0.231 NA
ATOM      9  C   UNL     1     -46.599  30.766  23.597  1.00  0.00    -0.049 A 
ATOM     10  H   UNL     1     -47.027  28.814  22.799  1.00  0.00     0.066 H 
ATOM     11  C   UNL     1     -48.077  31.448  25.363  1.00  0.00     0.076 A 
ATOM     12  C   UNL     1     -46.983  31.736  24.526  1.00  0.00     0.001 A 
ATOM     13  H   UNL     1     -45.771  30.939  22.916  1.00  0.00     0.063 H 
ATOM     14  C   UNL     1     -48.465  32.412  26.285  1.00  0.00     0.007 A 
ATOM     15  C   UNL     1     -46.316  32.967  24.630  1.00  0.00    -0.049 A 
ATOM     16  H   UNL     1     -49.312  32.200  26.932  1.00  0.00     0.069 H 
ATOM     17  C   UNL     1     -46.727  33.917  25.568  1.00  0.00    -0.019 A 
ATOM     18  H   UNL     1     -45.477  33.197  23.978  1.00  0.00     0.063 H 
ATOM     19  H   UNL     1     -46.195  34.861  25.603  1.00  0.00     0.066 H 
BRANCH   6  20
ATOM     20  N   UNL     1     -49.111  28.181  24.388  1.00  0.00    -0.373 N 
ATOM     21  H   UNL     1     -49.985  28.465  23.945  1.00  0.00     0.161 HD
BRANCH  20  22
ATOM     22  C   UNL     1     -49.348  27.614  25.705  1.00  0.00     0.005 C 
ATOM     23  H   UNL     1     -49.606  28.388  26.436  1.00  0.00     0.045 H 
ATOM     24  H   UNL     1     -48.483  27.048  26.064  1.00  0.00     0.045 H 
ATOM     25  H   UNL     1     -50.190  26.917  25.645  1.00  0.00     0.045 H 
ENDBRANCH  20  22
ENDBRANCH   6  20
ENDBRANCH   4   5
ENDBRANCH   1   4
BRANCH   1  26
ATOM     26  C   UNL     1     -47.268  36.614  27.940  1.00  0.00    -0.009 A 
ATOM     27  C   UNL     1     -46.924  36.173  29.222  1.00  0.00    -0.055 A 
ATOM     28  C   UNL     1     -46.595  37.723  27.395  1.00  0.00    -0.031 A 
ATOM     29  C   UNL     1     -45.946  36.842  29.954  1.00  0.00    -0.060 A 
ATOM     30  H   UNL     1     -47.423  35.311  29.659  1.00  0.00     0.063 H 
ATOM     31  C   UNL     1     -45.613  38.412  28.123  1.00  0.00     0.047 A 
ATOM     32  H   UNL     1     -46.851  38.012  26.381  1.00  0.00     0.065 H 
ATOM     33  C   UNL     1     -45.296  37.953  29.412  1.00  0.00    -0.038 A 
ATOM     34  H   UNL     1     -45.695  36.500  30.955  1.00  0.00     0.062 H 
ATOM     35  H   UNL     1     -44.562  38.445  30.042  1.00  0.00     0.064 H 
BRANCH  31  36
ATOM     36  N   UNL     1     -44.938  39.554  27.572  1.00  0.00    -0.300 N 
ATOM     37  C   UNL     1     -45.235  40.133  26.348  1.00  0.00     0.030 A 
ATOM     38  C   UNL     1     -43.882  40.286  28.127  1.00  0.00     0.151 A 
ATOM     39  C   UNL     1     -44.410  41.212  26.142  1.00  0.00     0.072 A 
ATOM     40  H   UNL     1     -46.031  39.762  25.720  1.00  0.00     0.084 H 
ATOM     41  C   UNL     1     -43.549  41.323  27.256  1.00  0.00     0.080 A 
ATOM     42  N   UNL     1     -43.252  40.036  29.294  1.00  0.00    -0.218 NA
ATOM     43  Cl  UNL     1     -44.427  42.224  24.776  1.00  0.00    -0.082 Cl
ATOM     44  C   UNL     1     -42.506  42.177  27.645  1.00  0.00     0.137 A 
ATOM     45  C   UNL     1     -42.271  40.908  29.556  1.00  0.00     0.120 A 
ATOM     46  N   UNL     1     -41.869  41.946  28.807  1.00  0.00    -0.219 NA
ATOM     47  H   UNL     1     -41.733  40.759  30.486  1.00  0.00     0.106 H 
BRANCH  44  48
ATOM     48  N   UNL     1     -42.067  43.257  26.898  1.00  0.00    -0.383 N 
ATOM     49  H   UNL     1     -41.360  43.840  27.327  1.00  0.00     0.158 HD
ATOM     50  H   UNL     1     -42.830  43.724  26.422  1.00  0.00     0.158 HD
ENDBRANCH  44  48
ENDBRANCH  31  36
ENDBRANCH   1  26
TORSDOF 7
ENDMDL
MODEL 2
REMARK VINA RESULT:     -10.4      2.999     10.503
REMARK SMILES CNc1ccc2ccc(OCc3cccc(-n4cc(Cl)c5c(N)ncnc54)c3)cc2n1
REMARK SMILES IDX 11 1 10 4 9 5 3 6 4 7 31 8 5 9 30 11 6 12 29 14 7 15 8 17
REMARK SMILES IDX 2 20 1 22 12 26 13 27 28 28 14 29 16 31 15 33 17 36 18 37
REMARK SMILES IDX 27 38 19 39 21 41 26 42 20 43 22 44 25 45 24 46 23 48
REMARK H PARENT 11 2 11 3 4 10 5 13 29 16 7 18 8 19 2 21 1 23 1 24 1 25 13 30
REMARK H PARENT 28 32 14 34 15 35 18 40 25 47 23 49 23 50
REMARK Flexibility Score: inf
ROOT
ATOM      1  C   UNL     1     -46.591  37.008  26.719  1.00  0.00     0.113 C 
ATOM      2  H   UNL     1     -47.485  37.243  26.129  1.00  0.00     0.076 H 
ATOM      3  H   UNL     1     -45.743  37.412  26.154  1.00  0.00     0.076 H 
ENDROOT
BRANCH   1   4
ATOM      4  O   UNL     1     -46.739  37.683  27.971  1.00  0.00    -0.489 OA
BRANCH   4   5
ATOM      5  C   UNL     1     -45.641  38.280  28.527  1.00  0.00     0.122 A 
ATOM      6  C   UNL     1     -42.494  41.792  27.876  1.00  0.00     0.126 A 
ATOM      7  C   UNL     1     -41.841  41.503  29.065  1.00  0.00    -0.019 A 
ATOM      8  N   UNL     1     -43.570  41.101  27.459  1.00  0.00    -0.231 NA
ATOM      9  C   UNL     1     -42.302  40.448  29.848  1.00  0.00    -0.049 A 
ATOM     10  H   UNL     1     -40.998  42.099  29.395  1.00  0.00     0.066 H 
ATOM     11  C   UNL     1     -44.022  40.081  28.212  1.00  0.00     0.076 A 
ATOM     12  C   UNL     1     -43.411  39.712  29.425  1.00  0.00     0.001 A 
ATOM     13  H   UNL     1     -41.799  40.218  30.783  1.00  0.00     0.063 H 
ATOM     14  C   UNL     1     -45.129  39.355  27.791  1.00  0.00     0.007 A 
ATOM     15  C   UNL     1     -43.920  38.641  30.177  1.00  0.00    -0.049 A 
ATOM     16  H   UNL     1     -45.609  39.636  26.857  1.00  0.00     0.069 H 
ATOM     17  C   UNL     1     -45.033  37.928  29.729  1.00  0.00    -0.019 A 
ATOM     18  H   UNL     1     -43.458  38.360  31.120  1.00  0.00     0.063 H 
ATOM     19  H   UNL     1     -45.404  37.119  30.349  1.00  0.00     0.066 H 
BRANCH   6  20
ATOM     20  N   UNL     1     -42.096  42.843  27.047  1.00  0.00    -0.373 N 
ATOM     21  H   UNL     1     -41.946  43.615  27.698  1.00  0.00     0.161 HD
BRANCH  20  22
ATOM     22  C   UNL     1     -43.072  43.195  26.030  1.00  0.00     0.005 C 
ATOM     23  H   UNL     1     -43.513  42.304  25.569  1.00  0.00     0.045 H 
ATOM     24  H   UNL     1     -42.635  43.829  25.252  1.00  0.00     0.045 H 
ATOM     25  H   UNL     1     -43.882  43.765  26.497  1.00  0.00     0.045 H 
ENDBRANCH  20  22
ENDBRANCH   6  20
ENDBRANCH   4   5
ENDBRANCH   1   4
BRANCH   1  26
ATOM     26  C   UNL     1     -46.528  35.503  26.860  1.00  0.00    -0.009 A 
ATOM     27  C   UNL     1     -45.822  34.905  27.909  1.00  0.00    -0.055 A 
ATOM     28  C   UNL     1     -47.231  34.684  25.957  1.00  0.00    -0.031 A 
ATOM     29  C   UNL     1     -45.798  33.519  28.038  1.00  0.00    -0.060 A 
ATOM     30  H   UNL     1     -45.280  35.519  28.626  1.00  0.00     0.063 H 
ATOM     31  C   UNL     1     -47.211  33.286  26.070  1.00  0.00     0.047 A 
ATOM     32  H   UNL     1     -47.808  35.179  25.182  1.00  0.00     0.065 H 
ATOM     33  C   UNL     1     -46.484  32.714  27.127  1.00  0.00    -0.038 A 
ATOM     34  H   UNL     1     -45.235  33.064  28.850  1.00  0.00     0.062 H 
ATOM     35  H   UNL     1     -46.406  31.641  27.267  1.00  0.00     0.064 H 
BRANCH  31  36
ATOM     36  N   UNL     1     -47.916  32.450  25.137  1.00  0.00    -0.300 N 
ATOM     37  C   UNL     1     -49.290  32.263  25.125  1.00  0.00     0.030 A 
ATOM     38  C   UNL     1     -47.388  31.681  24.095  1.00  0.00     0.151 A 
ATOM     39  C   UNL     1     -49.625  31.420  24.095  1.00  0.00     0.072 A 
ATOM     40  H   UNL     1     -49.940  32.765  25.827  1.00  0.00     0.084 H 
ATOM     41  C   UNL     1     -48.436  31.042  23.433  1.00  0.00     0.080 A 
ATOM     42  N   UNL     1     -46.084  31.538  23.776  1.00  0.00    -0.218 NA
ATOM     43  Cl  UNL     1     -51.201  30.919  23.700  1.00  0.00    -0.082 Cl
ATOM     44  C   UNL     1     -48.103  30.222  22.345  1.00  0.00     0.137 A 
ATOM     45  C   UNL     1     -45.886  30.726  22.731  1.00  0.00     0.120 A 
ATOM     46  N   UNL     1     -46.809  30.069  22.012  1.00  0.00    -0.219 NA
ATOM     47  H   UNL     1     -44.855  30.578  22.427  1.00  0.00     0.106 H 
BRANCH  44  48
ATOM     48  N   UNL     1     -49.029  29.531  21.580  1.00  0.00    -0.383 N 
ATOM     49  H   UNL     1     -48.677  29.097  20.737  1.00  0.00     0.158 HD
ATOM     50  H   UNL     1     -49.912  30.024  21.518  1.00  0.00     0.158 HD
ENDBRANCH  44  48
ENDBRANCH  31  36
ENDBRANCH   1  26
TORSDOF 7
ENDMDL
MODEL 3
REMARK VINA RESULT:     -10.4      1.644      2.344
REMARK SMILES CNc1ccc2ccc(OCc3cccc(-n4cc(Cl)c5c(N)ncnc54)c3)cc2n1
REMARK SMILES IDX 11 1 10 4 9 5 3 6 4 7 31 8 5 9 30 11 6 12 29 14 7 15 8 17
REMARK SMILES IDX 2 20 1 22 12 26 13 27 28 28 14 29 16 31 15 33 17 36 18 37
REMARK SMILES IDX 27 38 19 39 21 41 26 42 20 43 22 44 25 45 24 46 23 48
REMARK H PARENT 11 2 11 3 4 10 5 13 29 16 7 18 8 19 2 21 1 23 1 24 1 25 13 30
REMARK H PARENT 28 32 14 34 15 35 18 40 25 47 23 49 23 50
REMARK Flexibility Score: inf
ROOT
ATOM      1  C   UNL     1     -47.219  35.045  26.668  1.00  0.00     0.113 C 
ATOM      2  H   UNL     1     -46.867  35.346  25.674  1.00  0.00     0.076 H 
ATOM      3  H   UNL     1     -48.314  35.070  26.621  1.00  0.00     0.076 H 
ENDROOT
BRANCH   1   4
ATOM      4  O   UNL     1     -46.747  33.712  26.883  1.00  0.00    -0.489 OA
BRANCH   4   5
ATOM      5  C   UNL     1     -47.190  32.718  26.053  1.00  0.00     0.122 A 
ATOM      6  C   UNL     1     -46.549  30.809  21.740  1.00  0.00     0.126 A 
ATOM      7  C   UNL     1     -47.513  29.837  21.966  1.00  0.00    -0.019 A 
ATOM      8  N   UNL     1     -46.225  31.731  22.665  1.00  0.00    -0.231 NA
ATOM      9  C   UNL     1     -48.184  29.824  23.184  1.00  0.00    -0.049 A 
ATOM     10  H   UNL     1     -47.728  29.085  21.216  1.00  0.00     0.066 H 
ATOM     11  C   UNL     1     -46.870  31.723  23.847  1.00  0.00     0.076 A 
ATOM     12  C   UNL     1     -47.870  30.780  24.153  1.00  0.00     0.001 A 
ATOM     13  H   UNL     1     -48.937  29.064  23.371  1.00  0.00     0.063 H 
ATOM     14  C   UNL     1     -46.551  32.672  24.809  1.00  0.00     0.007 A 
ATOM     15  C   UNL     1     -48.513  30.811  25.401  1.00  0.00    -0.049 A 
ATOM     16  H   UNL     1     -45.777  33.401  24.582  1.00  0.00     0.069 H 
ATOM     17  C   UNL     1     -48.173  31.778  26.348  1.00  0.00    -0.019 A 
ATOM     18  H   UNL     1     -49.278  30.078  25.645  1.00  0.00     0.063 H 
ATOM     19  H   UNL     1     -48.682  31.755  27.305  1.00  0.00     0.066 H 
BRANCH   6  20
ATOM     20  N   UNL     1     -45.826  30.875  20.547  1.00  0.00    -0.373 N 
ATOM     21  H   UNL     1     -44.860  30.974  20.860  1.00  0.00     0.161 HD
BRANCH  20  22
ATOM     22  C   UNL     1     -46.215  31.975  19.682  1.00  0.00     0.005 C 
ATOM     23  H   UNL     1     -46.823  31.630  18.839  1.00  0.00     0.045 H 
ATOM     24  H   UNL     1     -45.343  32.519  19.302  1.00  0.00     0.045 H 
ATOM     25  H   UNL     1     -46.815  32.687  20.258  1.00  0.00     0.045 H 
ENDBRANCH  20  22
ENDBRANCH   6  20
ENDBRANCH   4   5
ENDBRANCH   1   4
BRANCH   1  26
ATOM     26  C   UNL     1     -46.660  36.039  27.663  1.00  0.00    -0.009 A 
ATOM     27  C   UNL     1     -46.649  35.761  29.033  1.00  0.00    -0.055 A 
ATOM     28  C   UNL     1     -46.091  37.243  27.206  1.00  0.00    -0.031 A 
ATOM     29  C   UNL     1     -46.106  36.676  29.930  1.00  0.00    -0.060 A 
ATOM     30  H   UNL     1     -47.073  34.831  29.408  1.00  0.00     0.063 H 
ATOM     31  C   UNL     1     -45.546  38.178  28.099  1.00  0.00     0.047 A 
ATOM     32  H   UNL     1     -46.072  37.409  26.133  1.00  0.00     0.065 H 
ATOM     33  C   UNL     1     -45.559  37.876  29.470  1.00  0.00    -0.038 A 
ATOM     34  H   UNL     1     -46.114  36.456  30.995  1.00  0.00     0.062 H 
ATOM     35  H   UNL     1     -45.175  38.558  30.220  1.00  0.00     0.064 H 
BRANCH  31  36
ATOM     36  N   UNL     1     -44.980  39.414  27.632  1.00  0.00    -0.300 N 
ATOM     37  C   UNL     1     -45.370  40.076  26.478  1.00  0.00     0.030 A 
ATOM     38  C   UNL     1     -43.959  40.172  28.215  1.00  0.00     0.151 A 
ATOM     39  C   UNL     1     -44.636  41.229  26.345  1.00  0.00     0.072 A 
ATOM     40  H   UNL     1     -46.162  39.703  25.846  1.00  0.00     0.084 H 
ATOM     41  C   UNL     1     -43.739  41.306  27.433  1.00  0.00     0.080 A 
ATOM     42  N   UNL     1     -43.264  39.868  29.332  1.00  0.00    -0.218 NA
ATOM     43  Cl  UNL     1     -44.784  42.355  25.079  1.00  0.00    -0.082 Cl
ATOM     44  C   UNL     1     -42.747  42.199  27.863  1.00  0.00     0.137 A 
ATOM     45  C   UNL     1     -42.340  40.786  29.639  1.00  0.00     0.120 A 
ATOM     46  N   UNL     1     -42.046  41.914  28.975  1.00  0.00    -0.219 NA
ATOM     47  H   UNL     1     -41.753  40.595  30.532  1.00  0.00     0.106 H 
BRANCH  44  48
ATOM     48  N   UNL     1     -42.420  43.373  27.204  1.00  0.00    -0.383 N 
ATOM     49  H   UNL     1     -43.071  44.139  27.308  1.00  0.00     0.158 HD
ATOM     50  H   UNL     1     -42.049  43.197  26.278  1.00  0.00     0.158 HD
ENDBRANCH  44  48
ENDBRANCH  31  36
ENDBRANCH   1  26
TORSDOF 7
ENDMDL
MODEL 4
REMARK VINA RESULT:     -10.2      1.925      2.722
REMARK SMILES CNc1ccc2ccc(OCc3cccc(-n4cc(Cl)c5c(N)ncnc54)c3)cc2n1
REMARK SMILES IDX 11 1 10 4 9 5 3 6 4 7 31 8 5 9 30 11 6 12 29 14 7 15 8 17
REMARK SMILES IDX 2 20 1 22 12 26 13 27 28 28 14 29 16 31 15 33 17 36 18 37
REMARK SMILES IDX 27 38 19 39 21 41 26 42 20 43 22 44 25 45 24 46 23 48
REMARK H PARENT 11 2 11 3 4 10 5 13 29 16 7 18 8 19 2 21 1 23 1 24 1 25 13 30
REMARK H PARENT 28 32 14 34 15 35 18 40 25 47 23 49 23 50
REMARK Flexibility Score: inf
ROOT
ATOM      1  C   UNL     1     -46.764  35.335  26.751  1.00  0.00     0.113 C 
ATOM      2  H   UNL     1     -45.928  35.325  26.041  1.00  0.00     0.076 H 
ATOM      3  H   UNL     1     -47.613  35.772  26.211  1.00  0.00     0.076 H 
ENDROOT
BRANCH   1   4
ATOM      4  O   UNL     1     -47.025  33.972  27.095  1.00  0.00    -0.489 OA
BRANCH   4   5
ATOM      5  C   UNL     1     -47.579  33.152  26.151  1.00  0.00     0.122 A 
ATOM      6  C   UNL     1     -46.497  30.299  22.497  1.00  0.00     0.126 A 
ATOM      7  C   UNL     1     -47.827  29.965  22.291  1.00  0.00    -0.019 A 
ATOM      8  N   UNL     1     -46.107  31.134  23.477  1.00  0.00    -0.231 NA
ATOM      9  C   UNL     1     -48.798  30.527  23.114  1.00  0.00    -0.049 A 
ATOM     10  H   UNL     1     -48.109  29.262  21.516  1.00  0.00     0.066 H 
ATOM     11  C   UNL     1     -47.041  31.680  24.278  1.00  0.00     0.076 A 
ATOM     12  C   UNL     1     -48.414  31.405  24.131  1.00  0.00     0.001 A 
ATOM     13  H   UNL     1     -49.842  30.268  22.963  1.00  0.00     0.063 H 
ATOM     14  C   UNL     1     -46.654  32.548  25.291  1.00  0.00     0.007 A 
ATOM     15  C   UNL     1     -49.351  31.998  24.992  1.00  0.00    -0.049 A 
ATOM     16  H   UNL     1     -45.596  32.762  25.415  1.00  0.00     0.069 H 
ATOM     17  C   UNL     1     -48.934  32.869  26.000  1.00  0.00    -0.019 A 
ATOM     18  H   UNL     1     -50.411  31.780  24.887  1.00  0.00     0.063 H 
ATOM     19  H   UNL     1     -49.689  33.291  26.653  1.00  0.00     0.066 H 
BRANCH   6  20
ATOM     20  N   UNL     1     -45.468  29.763  21.719  1.00  0.00    -0.373 N 
ATOM     21  H   UNL     1     -45.962  29.318  20.945  1.00  0.00     0.161 HD
BRANCH  20  22
ATOM     22  C   UNL     1     -44.629  28.810  22.425  1.00  0.00     0.005 C 
ATOM     23  H   UNL     1     -44.918  27.777  22.204  1.00  0.00     0.045 H 
ATOM     24  H   UNL     1     -44.657  28.971  23.508  1.00  0.00     0.045 H 
ATOM     25  H   UNL     1     -43.591  28.943  22.104  1.00  0.00     0.045 H 
ENDBRANCH  20  22
ENDBRANCH   6  20
ENDBRANCH   4   5
ENDBRANCH   1   4
BRANCH   1  26
ATOM     26  C   UNL     1     -46.338  36.175  27.936  1.00  0.00    -0.009 A 
ATOM     27  C   UNL     1     -46.626  35.775  29.244  1.00  0.00    -0.055 A 
ATOM     28  C   UNL     1     -45.593  37.351  27.728  1.00  0.00    -0.031 A 
ATOM     29  C   UNL     1     -46.202  36.548  30.322  1.00  0.00    -0.060 A 
ATOM     30  H   UNL     1     -47.191  34.864  29.429  1.00  0.00     0.063 H 
ATOM     31  C   UNL     1     -45.165  38.143  28.805  1.00  0.00     0.047 A 
ATOM     32  H   UNL     1     -45.345  37.609  26.704  1.00  0.00     0.065 H 
ATOM     33  C   UNL     1     -45.479  37.723  30.107  1.00  0.00    -0.038 A 
ATOM     34  H   UNL     1     -46.443  36.235  31.336  1.00  0.00     0.062 H 
ATOM     35  H   UNL     1     -45.199  38.293  30.987  1.00  0.00     0.064 H 
BRANCH  31  36
ATOM     36  N   UNL     1     -44.419  39.353  28.591  1.00  0.00    -0.300 N 
ATOM     37  C   UNL     1     -43.317  39.744  29.336  1.00  0.00     0.030 A 
ATOM     38  C   UNL     1     -44.640  40.347  27.632  1.00  0.00     0.151 A 
ATOM     39  C   UNL     1     -42.841  40.937  28.852  1.00  0.00     0.072 A 
ATOM     40  H   UNL     1     -42.926  39.136  30.138  1.00  0.00     0.084 H 
ATOM     41  C   UNL     1     -43.665  41.334  27.776  1.00  0.00     0.080 A 
ATOM     42  N   UNL     1     -45.640  40.388  26.726  1.00  0.00    -0.218 NA
ATOM     43  Cl  UNL     1     -41.497  41.785  29.457  1.00  0.00    -0.082 Cl
ATOM     44  C   UNL     1     -43.718  42.422  26.892  1.00  0.00     0.137 A 
ATOM     45  C   UNL     1     -45.595  41.474  25.945  1.00  0.00     0.120 A 
ATOM     46  N   UNL     1     -44.706  42.478  25.980  1.00  0.00    -0.219 NA
ATOM     47  H   UNL     1     -46.374  41.556  25.194  1.00  0.00     0.106 H 
BRANCH  44  48
ATOM     48  N   UNL     1     -42.816  43.473  26.898  1.00  0.00    -0.383 N 
ATOM     49  H   UNL     1     -43.072  44.284  26.351  1.00  0.00     0.158 HD
ATOM     50  H   UNL     1     -41.858  43.150  26.833  1.00  0.00     0.158 HD
ENDBRANCH  44  48
ENDBRANCH  31  36
ENDBRANCH   1  26
TORSDOF 7
ENDMDL
MODEL 5
REMARK VINA RESULT:     -10.1      1.597      2.301
REMARK SMILES CNc1ccc2ccc(OCc3cccc(-n4cc(Cl)c5c(N)ncnc54)c3)cc2n1
REMARK SMILES IDX 11 1 10 4 9 5 3 6 4 7 31 8 5 9 30 11 6 12 29 14 7 15 8 17
REMARK SMILES IDX 2 20 1 22 12 26 13 27 28 28 14 29 16 31 15 33 17 36 18 37
REMARK SMILES IDX 27 38 19 39 21 41 26 42 20 43 22 44 25 45 24 46 23 48
REMARK H PARENT 11 2 11 3 4 10 5 13 29 16 7 18 8 19 2 21 1 23 1 24 1 25 13 30
REMARK H PARENT 28 32 14 34 15 35 18 40 25 47 23 49 23 50
REMARK Flexibility Score: inf
ROOT
ATOM      1  C   UNL     1     -46.370  34.289  27.266  1.00  0.00     0.113 C 
ATOM      2  H   UNL     1     -45.931  33.895  28.191  1.00  0.00     0.076 H 
ATOM      3  H   UNL     1     -45.593  34.193  26.499  1.00  0.00     0.076 H 
ENDROOT
BRANCH   1   4
ATOM      4  O   UNL     1     -47.493  33.457  26.961  1.00  0.00    -0.489 OA
BRANCH   4   5
ATOM      5  C   UNL     1     -47.379  32.546  25.947  1.00  0.00     0.122 A 
ATOM      6  C   UNL     1     -49.142  28.433  24.324  1.00  0.00     0.126 A 
ATOM      7  C   UNL     1     -48.313  28.451  23.213  1.00  0.00    -0.019 A 
ATOM      8  N   UNL     1     -49.133  29.412  25.247  1.00  0.00    -0.231 NA
ATOM      9  C   UNL     1     -47.424  29.510  23.054  1.00  0.00    -0.049 A 
ATOM     10  H   UNL     1     -48.366  27.667  22.467  1.00  0.00     0.066 H 
ATOM     11  C   UNL     1     -48.277  30.440  25.097  1.00  0.00     0.076 A 
ATOM     12  C   UNL     1     -47.391  30.531  24.007  1.00  0.00     0.001 A 
ATOM     13  H   UNL     1     -46.773  29.534  22.184  1.00  0.00     0.063 H 
ATOM     14  C   UNL     1     -48.251  31.456  26.044  1.00  0.00     0.007 A 
ATOM     15  C   UNL     1     -46.517  31.623  23.893  1.00  0.00    -0.049 A 
ATOM     16  H   UNL     1     -48.935  31.396  26.887  1.00  0.00     0.069 H 
ATOM     17  C   UNL     1     -46.512  32.628  24.862  1.00  0.00    -0.019 A 
ATOM     18  H   UNL     1     -45.839  31.702  23.047  1.00  0.00     0.063 H 
ATOM     19  H   UNL     1     -45.833  33.463  24.726  1.00  0.00     0.066 H 
BRANCH   6  20
ATOM     20  N   UNL     1     -50.068  27.411  24.543  1.00  0.00    -0.373 N 
ATOM     21  H   UNL     1     -50.959  27.838  24.287  1.00  0.00     0.161 HD
BRANCH  20  22
ATOM     22  C   UNL     1     -50.094  26.920  25.910  1.00  0.00     0.005 C 
ATOM     23  H   UNL     1     -49.624  25.934  25.993  1.00  0.00     0.045 H 
ATOM     24  H   UNL     1     -51.115  26.870  26.304  1.00  0.00     0.045 H 
ATOM     25  H   UNL     1     -49.534  27.612  26.547  1.00  0.00     0.045 H 
ENDBRANCH  20  22
ENDBRANCH   6  20
ENDBRANCH   4   5
ENDBRANCH   1   4
BRANCH   1  26
ATOM     26  C   UNL     1     -46.752  35.729  27.527  1.00  0.00    -0.009 A 
ATOM     27  C   UNL     1     -48.093  36.113  27.633  1.00  0.00    -0.055 A 
ATOM     28  C   UNL     1     -45.748  36.696  27.721  1.00  0.00    -0.031 A 
ATOM     29  C   UNL     1     -48.424  37.438  27.901  1.00  0.00    -0.060 A 
ATOM     30  H   UNL     1     -48.886  35.380  27.498  1.00  0.00     0.063 H 
ATOM     31  C   UNL     1     -46.066  38.037  27.984  1.00  0.00     0.047 A 
ATOM     32  H   UNL     1     -44.717  36.358  27.680  1.00  0.00     0.065 H 
ATOM     33  C   UNL     1     -47.421  38.394  28.074  1.00  0.00    -0.038 A 
ATOM     34  H   UNL     1     -49.470  37.729  27.968  1.00  0.00     0.062 H 
ATOM     35  H   UNL     1     -47.744  39.414  28.255  1.00  0.00     0.064 H 
BRANCH  31  36
ATOM     36  N   UNL     1     -45.039  39.026  28.166  1.00  0.00    -0.300 N 
ATOM     37  C   UNL     1     -44.141  39.048  29.221  1.00  0.00     0.030 A 
ATOM     38  C   UNL     1     -44.748  40.129  27.355  1.00  0.00     0.151 A 
ATOM     39  C   UNL     1     -43.291  40.117  29.073  1.00  0.00     0.072 A 
ATOM     40  H   UNL     1     -44.142  38.288  29.988  1.00  0.00     0.084 H 
ATOM     41  C   UNL     1     -43.660  40.811  27.900  1.00  0.00     0.080 A 
ATOM     42  N   UNL     1     -45.409  40.510  26.241  1.00  0.00    -0.218 NA
ATOM     43  Cl  UNL     1     -42.025  40.529  30.130  1.00  0.00    -0.082 Cl
ATOM     44  C   UNL     1     -43.213  41.953  27.218  1.00  0.00     0.137 A 
ATOM     45  C   UNL     1     -44.901  41.615  25.683  1.00  0.00     0.120 A 
ATOM     46  N   UNL     1     -43.858  42.346  26.105  1.00  0.00    -0.219 NA
ATOM     47  H   UNL     1     -45.391  41.965  24.781  1.00  0.00     0.106 H 
BRANCH  44  48
ATOM     48  N   UNL     1     -42.140  42.729  27.623  1.00  0.00    -0.383 N 
ATOM     49  H   UNL     1     -41.711  43.304  26.911  1.00  0.00     0.158 HD
ATOM     50  H   UNL     1     -41.524  42.226  28.251  1.00  0.00     0.158 HD
ENDBRANCH  44  48
ENDBRANCH  31  36
ENDBRANCH   1  26
TORSDOF 7
ENDMDL
MODEL 6
REMARK VINA RESULT:      -9.9      1.596      2.605
REMARK SMILES CNc1ccc2ccc(OCc3cccc(-n4cc(Cl)c5c(N)ncnc54)c3)cc2n1
REMARK SMILES IDX 11 1 10 4 9 5 3 6 4 7 31 8 5 9 30 11 6 12 29 14 7 15 8 17
REMARK SMILES IDX 2 20 1 22 12 26 13 27 28 28 14 29 16 31 15 33 17 36 18 37
REMARK SMILES IDX 27 38 19 39 21 41 26 42 20 43 22 44 25 45 24 46 23 48
REMARK H PARENT 11 2 11 3 4 10 5 13 29 16 7 18 8 19 2 21 1 23 1 24 1 25 13 30
REMARK H PARENT 28 32 14 34 15 35 18 40 25 47 23 49 23 50
REMARK Flexibility Score: inf
ROOT
ATOM      1  C   UNL     1     -47.286  33.839  26.100  1.00  0.00     0.113 C 
ATOM      2  H   UNL     1     -46.244  33.650  26.386  1.00  0.00     0.076 H 
ATOM      3  H   UNL     1     -47.304  33.831  25.003  1.00  0.00     0.076 H 
ENDROOT
BRANCH   1   4
ATOM      4  O   UNL     1     -48.058  32.759  26.631  1.00  0.00    -0.489 OA
BRANCH   4   5
ATOM      5  C   UNL     1     -48.615  31.861  25.762  1.00  0.00     0.122 A 
ATOM      6  C   UNL     1     -49.005  27.206  24.850  1.00  0.00     0.126 A 
ATOM      7  C   UNL     1     -49.816  27.433  23.748  1.00  0.00    -0.019 A 
ATOM      8  N   UNL     1     -48.527  28.206  25.611  1.00  0.00    -0.231 NA
ATOM      9  C   UNL     1     -50.132  28.743  23.403  1.00  0.00    -0.049 A 
ATOM     10  H   UNL     1     -50.216  26.605  23.174  1.00  0.00     0.066 H 
ATOM     11  C   UNL     1     -48.831  29.476  25.284  1.00  0.00     0.076 A 
ATOM     12  C   UNL     1     -49.636  29.796  24.174  1.00  0.00     0.001 A 
ATOM     13  H   UNL     1     -50.770  28.930  22.543  1.00  0.00     0.063 H 
ATOM     14  C   UNL     1     -48.339  30.521  26.056  1.00  0.00     0.007 A 
ATOM     15  C   UNL     1     -49.926  31.136  23.873  1.00  0.00    -0.049 A 
ATOM     16  H   UNL     1     -47.720  30.282  26.917  1.00  0.00     0.069 H 
ATOM     17  C   UNL     1     -49.417  32.166  24.666  1.00  0.00    -0.019 A 
ATOM     18  H   UNL     1     -50.556  31.387  23.024  1.00  0.00     0.063 H 
ATOM     19  H   UNL     1     -49.680  33.186  24.409  1.00  0.00     0.066 H 
BRANCH   6  20
ATOM     20  N   UNL     1     -48.658  25.918  25.263  1.00  0.00    -0.373 N 
ATOM     21  H   UNL     1     -49.347  25.706  25.986  1.00  0.00     0.161 HD
BRANCH  20  22
ATOM     22  C   UNL     1     -47.304  25.808  25.780  1.00  0.00     0.005 C 
ATOM     23  H   UNL     1     -47.285  25.849  26.874  1.00  0.00     0.045 H 
ATOM     24  H   UNL     1     -46.652  26.590  25.375  1.00  0.00     0.045 H 
ATOM     25  H   UNL     1     -46.884  24.845  25.474  1.00  0.00     0.045 H 
ENDBRANCH  20  22
ENDBRANCH   6  20
ENDBRANCH   4   5
ENDBRANCH   1   4
BRANCH   1  26
ATOM     26  C   UNL     1     -47.673  35.185  26.675  1.00  0.00    -0.009 A 
ATOM     27  C   UNL     1     -48.958  35.411  27.178  1.00  0.00    -0.055 A 
ATOM     28  C   UNL     1     -46.715  36.212  26.758  1.00  0.00    -0.031 A 
ATOM     29  C   UNL     1     -49.288  36.647  27.728  1.00  0.00    -0.060 A 
ATOM     30  H   UNL     1     -49.711  34.627  27.134  1.00  0.00     0.063 H 
ATOM     31  C   UNL     1     -47.035  37.466  27.303  1.00  0.00     0.047 A 
ATOM     32  H   UNL     1     -45.715  35.990  26.403  1.00  0.00     0.065 H 
ATOM     33  C   UNL     1     -48.336  37.667  27.790  1.00  0.00    -0.038 A 
ATOM     34  H   UNL     1     -50.294  36.818  28.104  1.00  0.00     0.062 H 
ATOM     35  H   UNL     1     -48.662  38.615  28.207  1.00  0.00     0.064 H 
BRANCH  31  36
ATOM     36  N   UNL     1     -46.060  38.520  27.373  1.00  0.00    -0.300 N 
ATOM     37  C   UNL     1     -45.884  39.497  26.406  1.00  0.00     0.030 A 
ATOM     38  C   UNL     1     -45.124  38.766  28.383  1.00  0.00     0.151 A 
ATOM     39  C   UNL     1     -44.883  40.351  26.800  1.00  0.00     0.072 A 
ATOM     40  H   UNL     1     -46.500  39.542  25.520  1.00  0.00     0.084 H 
ATOM     41  C   UNL     1     -44.391  39.904  28.046  1.00  0.00     0.080 A 
ATOM     42  N   UNL     1     -44.921  38.027  29.494  1.00  0.00    -0.218 NA
ATOM     43  Cl  UNL     1     -44.333  41.702  25.926  1.00  0.00    -0.082 Cl
ATOM     44  C   UNL     1     -43.398  40.317  28.948  1.00  0.00     0.137 A 
ATOM     45  C   UNL     1     -43.945  38.510  30.272  1.00  0.00     0.120 A 
ATOM     46  N   UNL     1     -43.183  39.595  30.062  1.00  0.00    -0.219 NA
ATOM     47  H   UNL     1     -43.741  37.958  31.184  1.00  0.00     0.106 H 
BRANCH  44  48
ATOM     48  N   UNL     1     -42.596  41.431  28.763  1.00  0.00    -0.383 N 
ATOM     49  H   UNL     1     -41.626  41.332  29.031  1.00  0.00     0.158 HD
ATOM     50  H   UNL     1     -43.069  42.286  29.029  1.00  0.00     0.158 HD
ENDBRANCH  44  48
ENDBRANCH  31  36
ENDBRANCH   1  26
TORSDOF 7
ENDMDL
MODEL 7
REMARK VINA RESULT:      -9.9      2.705      4.759
REMARK SMILES CNc1ccc2ccc(OCc3cccc(-n4cc(Cl)c5c(N)ncnc54)c3)cc2n1
REMARK SMILES IDX 11 1 10 4 9 5 3 6 4 7 31 8 5 9 30 11 6 12 29 14 7 15 8 17
REMARK SMILES IDX 2 20 1 22 12 26 13 27 28 28 14 29 16 31 15 33 17 36 18 37
REMARK SMILES IDX 27 38 19 39 21 41 26 42 20 43 22 44 25 45 24 46 23 48
REMARK H PARENT 11 2 11 3 4 10 5 13 29 16 7 18 8 19 2 21 1 23 1 24 1 25 13 30
REMARK H PARENT 28 32 14 34 15 35 18 40 25 47 23 49 23 50
REMARK Flexibility Score: inf
ROOT
ATOM      1  C   UNL     1     -44.983  38.398  28.864  1.00  0.00     0.113 C 
ATOM      2  H   UNL     1     -45.040  38.191  29.940  1.00  0.00     0.076 H 
ATOM      3  H   UNL     1     -44.553  37.499  28.406  1.00  0.00     0.076 H 
ENDROOT
BRANCH   1   4
ATOM      4  O   UNL     1     -46.326  38.607  28.417  1.00  0.00    -0.489 OA
BRANCH   4   5
ATOM      5  C   UNL     1     -47.039  37.532  27.960  1.00  0.00     0.122 A 
ATOM      6  C   UNL     1     -46.594  33.375  25.684  1.00  0.00     0.126 A 
ATOM      7  C   UNL     1     -47.952  33.109  25.789  1.00  0.00    -0.019 A 
ATOM      8  N   UNL     1     -46.038  34.491  26.187  1.00  0.00    -0.231 NA
ATOM      9  C   UNL     1     -48.774  34.038  26.419  1.00  0.00    -0.049 A 
ATOM     10  H   UNL     1     -48.367  32.184  25.406  1.00  0.00     0.066 H 
ATOM     11  C   UNL     1     -46.828  35.394  26.800  1.00  0.00     0.076 A 
ATOM     12  C   UNL     1     -48.217  35.209  26.937  1.00  0.00     0.001 A 
ATOM     13  H   UNL     1     -49.837  33.836  26.508  1.00  0.00     0.063 H 
ATOM     14  C   UNL     1     -46.269  36.555  27.319  1.00  0.00     0.007 A 
ATOM     15  C   UNL     1     -48.998  36.178  27.586  1.00  0.00    -0.049 A 
ATOM     16  H   UNL     1     -45.197  36.703  27.220  1.00  0.00     0.069 H 
ATOM     17  C   UNL     1     -48.410  37.337  28.096  1.00  0.00    -0.019 A 
ATOM     18  H   UNL     1     -50.070  36.035  27.703  1.00  0.00     0.063 H 
ATOM     19  H   UNL     1     -49.048  38.051  28.604  1.00  0.00     0.066 H 
BRANCH   6  20
ATOM     20  N   UNL     1     -45.708  32.482  25.078  1.00  0.00    -0.373 N 
ATOM     21  H   UNL     1     -44.928  33.077  24.795  1.00  0.00     0.161 HD
BRANCH  20  22
ATOM     22  C   UNL     1     -46.269  31.775  23.940  1.00  0.00     0.005 C 
ATOM     23  H   UNL     1     -45.909  30.741  23.890  1.00  0.00     0.045 H 
ATOM     24  H   UNL     1     -46.045  32.283  22.996  1.00  0.00     0.045 H 
ATOM     25  H   UNL     1     -47.359  31.745  24.042  1.00  0.00     0.045 H 
ENDBRANCH  20  22
ENDBRANCH   6  20
ENDBRANCH   4   5
ENDBRANCH   1   4
BRANCH   1  26
ATOM     26  C   UNL     1     -44.103  39.616  28.687  1.00  0.00    -0.009 A 
ATOM     27  C   UNL     1     -43.076  39.902  29.592  1.00  0.00    -0.055 A 
ATOM     28  C   UNL     1     -44.277  40.448  27.565  1.00  0.00    -0.031 A 
ATOM     29  C   UNL     1     -42.259  41.012  29.397  1.00  0.00    -0.060 A 
ATOM     30  H   UNL     1     -42.916  39.266  30.460  1.00  0.00     0.063 H 
ATOM     31  C   UNL     1     -43.465  41.575  27.359  1.00  0.00     0.047 A 
ATOM     32  H   UNL     1     -45.051  40.173  26.856  1.00  0.00     0.065 H 
ATOM     33  C   UNL     1     -42.450  41.843  28.291  1.00  0.00    -0.038 A 
ATOM     34  H   UNL     1     -41.472  41.234  30.114  1.00  0.00     0.062 H 
ATOM     35  H   UNL     1     -41.797  42.706  28.209  1.00  0.00     0.064 H 
BRANCH  31  36
ATOM     36  N   UNL     1     -43.655  42.434  26.222  1.00  0.00    -0.300 N 
ATOM     37  C   UNL     1     -42.681  42.725  25.280  1.00  0.00     0.030 A 
ATOM     38  C   UNL     1     -44.810  43.129  25.848  1.00  0.00     0.151 A 
ATOM     39  C   UNL     1     -43.207  43.561  24.326  1.00  0.00     0.072 A 
ATOM     40  H   UNL     1     -41.692  42.296  25.331  1.00  0.00     0.084 H 
ATOM     41  C   UNL     1     -44.551  43.827  24.669  1.00  0.00     0.080 A 
ATOM     42  N   UNL     1     -45.985  43.162  26.513  1.00  0.00    -0.218 NA
ATOM     43  Cl  UNL     1     -42.372  44.170  22.976  1.00  0.00    -0.082 Cl
ATOM     44  C   UNL     1     -45.600  44.587  24.130  1.00  0.00     0.137 A 
ATOM     45  C   UNL     1     -46.905  43.925  25.911  1.00  0.00     0.120 A 
ATOM     46  N   UNL     1     -46.778  44.629  24.776  1.00  0.00    -0.219 NA
ATOM     47  H   UNL     1     -47.873  43.984  26.400  1.00  0.00     0.106 H 
BRANCH  44  48
ATOM     48  N   UNL     1     -45.504  45.323  22.961  1.00  0.00    -0.383 N 
ATOM     49  H   UNL     1     -44.974  46.183  23.016  1.00  0.00     0.158 HD
ATOM     50  H   UNL     1     -46.382  45.349  22.455  1.00  0.00     0.158 HD
ENDBRANCH  44  48
ENDBRANCH  31  36
ENDBRANCH   1  26
TORSDOF 7
ENDMDL
