MODEL 1
REMARK VINA RESULT:      -9.9      0.000      0.000
REMARK SMILES CNc1ccc2ccc(OCc3cncc(-n4ccc5c(N)nc(NC)nc54)c3)cc2n1
REMARK SMILES IDX 11 1 10 4 9 5 3 6 4 7 32 8 5 9 31 11 6 12 30 14 7 15 8 17
REMARK SMILES IDX 2 20 1 22 12 26 13 27 29 28 14 29 16 31 15 33 17 35 18 36
REMARK SMILES IDX 28 37 19 38 20 40 27 41 21 43 24 44 23 45 22 46 25 49 26 51
REMARK H PARENT 11 2 11 3 4 10 5 13 30 16 7 18 8 19 2 21 1 23 1 24 1 25 13 30
REMARK H PARENT 29 32 15 34 18 39 19 42 22 47 22 48 25 50 26 52 26 53 26 54
REMARK Flexibility Score: inf
ROOT
ATOM      1  C   UNL     1     -46.565  36.978  26.914  1.00  0.00     0.115 C 
ATOM      2  H   UNL     1     -47.306  37.390  26.219  1.00  0.00     0.076 H 
ATOM      3  H   UNL     1     -45.582  37.250  26.510  1.00  0.00     0.076 H 
ENDROOT
BRANCH   1   4
ATOM      4  O   UNL     1     -46.662  37.608  28.195  1.00  0.00    -0.489 OA
BRANCH   4   5
ATOM      5  C   UNL     1     -45.571  38.271  28.685  1.00  0.00     0.122 A 
ATOM      6  C   UNL     1     -42.579  41.863  27.746  1.00  0.00     0.126 A 
ATOM      7  C   UNL     1     -41.856  41.624  28.908  1.00  0.00    -0.019 A 
ATOM      8  N   UNL     1     -43.654  41.117  27.417  1.00  0.00    -0.231 NA
ATOM      9  C   UNL     1     -42.235  40.580  29.747  1.00  0.00    -0.049 A 
ATOM     10  H   UNL     1     -41.013  42.252  29.170  1.00  0.00     0.066 H 
ATOM     11  C   UNL     1     -44.029  40.107  28.223  1.00  0.00     0.076 A 
ATOM     12  C   UNL     1     -43.341  39.796  29.410  1.00  0.00     0.001 A 
ATOM     13  H   UNL     1     -41.671  40.393  30.656  1.00  0.00     0.063 H 
ATOM     14  C   UNL     1     -45.130  39.334  27.886  1.00  0.00     0.007 A 
ATOM     15  C   UNL     1     -43.768  38.729  30.218  1.00  0.00    -0.049 A 
ATOM     16  H   UNL     1     -45.667  39.569  26.969  1.00  0.00     0.069 H 
ATOM     17  C   UNL     1     -44.880  37.967  29.854  1.00  0.00    -0.019 A 
ATOM     18  H   UNL     1     -43.234  38.482  31.133  1.00  0.00     0.063 H 
ATOM     19  H   UNL     1     -45.163  37.142  30.498  1.00  0.00     0.066 H 
BRANCH   6  20
ATOM     20  N   UNL     1     -42.184  42.944  26.936  1.00  0.00    -0.373 N 
ATOM     21  H   UNL     1     -41.623  42.589  26.167  1.00  0.00     0.161 HD
BRANCH  20  22
ATOM     22  C   UNL     1     -43.283  43.771  26.468  1.00  0.00     0.005 C 
ATOM     23  H   UNL     1     -44.052  43.896  27.239  1.00  0.00     0.045 H 
ATOM     24  H   UNL     1     -42.933  44.754  26.133  1.00  0.00     0.045 H 
ATOM     25  H   UNL     1     -43.753  43.282  25.608  1.00  0.00     0.045 H 
ENDBRANCH  20  22
ENDBRANCH   6  20
ENDBRANCH   4   5
ENDBRANCH   1   4
BRANCH   1  26
ATOM     26  C   UNL     1     -46.624  35.474  26.984  1.00  0.00     0.010 A 
ATOM     27  C   UNL     1     -45.958  34.800  27.997  1.00  0.00     0.034 A 
ATOM     28  C   UNL     1     -47.379  34.705  26.085  1.00  0.00    -0.028 A 
ATOM     29  N   UNL     1     -45.972  33.461  28.146  1.00  0.00    -0.262 NA
ATOM     30  H   UNL     1     -45.373  35.330  28.745  1.00  0.00     0.084 H 
ATOM     31  C   UNL     1     -47.421  33.308  26.203  1.00  0.00     0.066 A 
ATOM     32  H   UNL     1     -47.932  35.231  25.313  1.00  0.00     0.065 H 
ATOM     33  C   UNL     1     -46.697  32.745  27.248  1.00  0.00     0.051 A 
ATOM     34  H   UNL     1     -46.634  31.677  27.423  1.00  0.00     0.086 H 
BRANCH  31  35
ATOM     35  N   UNL     1     -48.170  32.508  25.281  1.00  0.00    -0.300 N 
ATOM     36  C   UNL     1     -49.558  32.457  25.214  1.00  0.00     0.012 A 
ATOM     37  C   UNL     1     -47.682  31.648  24.296  1.00  0.00     0.152 A 
ATOM     38  C   UNL     1     -49.938  31.596  24.210  1.00  0.00    -0.031 A 
ATOM     39  H   UNL     1     -50.182  33.047  25.868  1.00  0.00     0.082 H 
ATOM     40  C   UNL     1     -48.759  31.084  23.624  1.00  0.00     0.062 A 
ATOM     41  N   UNL     1     -46.392  31.375  24.029  1.00  0.00    -0.194 NA
ATOM     42  H   UNL     1     -50.958  31.361  23.933  1.00  0.00     0.065 H 
ATOM     43  C   UNL     1     -48.461  30.188  22.593  1.00  0.00     0.138 A 
ATOM     44  C   UNL     1     -46.205  30.508  23.029  1.00  0.00     0.226 A 
ATOM     45  N   UNL     1     -47.176  29.918  22.314  1.00  0.00    -0.195 NA
BRANCH  43  46
ATOM     46  N   UNL     1     -49.428  29.556  21.820  1.00  0.00    -0.383 N 
ATOM     47  H   UNL     1     -49.624  30.108  20.992  1.00  0.00     0.158 HD
ATOM     48  H   UNL     1     -50.234  29.233  22.337  1.00  0.00     0.158 HD
ENDBRANCH  43  46
BRANCH  44  49
ATOM     49  N   UNL     1     -44.871  30.230  22.743  1.00  0.00    -0.357 N 
ATOM     50  H   UNL     1     -44.344  30.530  23.555  1.00  0.00     0.163 HD
BRANCH  49  51
ATOM     51  C   UNL     1     -44.626  28.869  22.320  1.00  0.00     0.006 C 
ATOM     52  H   UNL     1     -44.897  28.717  21.269  1.00  0.00     0.045 H 
ATOM     53  H   UNL     1     -45.240  28.192  22.921  1.00  0.00     0.045 H 
ATOM     54  H   UNL     1     -43.581  28.579  22.473  1.00  0.00     0.045 H 
ENDBRANCH  49  51
ENDBRANCH  44  49
ENDBRANCH  31  35
ENDBRANCH   1  26
TORSDOF 9
ENDMDL
MODEL 2
REMARK VINA RESULT:      -9.3      2.759     11.078
REMARK SMILES CNc1ccc2ccc(OCc3cncc(-n4ccc5c(N)nc(NC)nc54)c3)cc2n1
REMARK SMILES IDX 11 1 10 4 9 5 3 6 4 7 32 8 5 9 31 11 6 12 30 14 7 15 8 17
REMARK SMILES IDX 2 20 1 22 12 26 13 27 29 28 14 29 16 31 15 33 17 35 18 36
REMARK SMILES IDX 28 37 19 38 20 40 27 41 21 43 24 44 23 45 22 46 25 49 26 51
REMARK H PARENT 11 2 11 3 4 10 5 13 30 16 7 18 8 19 2 21 1 23 1 24 1 25 13 30
REMARK H PARENT 29 32 15 34 18 39 19 42 22 47 22 48 25 50 26 52 26 53 26 54
REMARK Flexibility Score: inf
ROOT
ATOM      1  C   UNL     1     -46.909  33.898  25.593  1.00  0.00     0.115 C 
ATOM      2  H   UNL     1     -46.047  33.299  25.910  1.00  0.00     0.076 H 
ATOM      3  H   UNL     1     -46.620  34.373  24.648  1.00  0.00     0.076 H 
ENDROOT
BRANCH   1   4
ATOM      4  O   UNL     1     -48.031  33.062  25.297  1.00  0.00    -0.489 OA
BRANCH   4   5
ATOM      5  C   UNL     1     -47.802  31.789  24.854  1.00  0.00     0.122 A 
ATOM      6  C   UNL     1     -48.887  27.224  25.701  1.00  0.00     0.126 A 
ATOM      7  C   UNL     1     -48.084  26.792  24.652  1.00  0.00    -0.019 A 
ATOM      8  N   UNL     1     -49.019  28.533  25.996  1.00  0.00    -0.231 NA
ATOM      9  C   UNL     1     -47.383  27.727  23.898  1.00  0.00    -0.049 A 
ATOM     10  H   UNL     1     -48.014  25.737  24.412  1.00  0.00     0.066 H 
ATOM     11  C   UNL     1     -48.346  29.445  25.270  1.00  0.00     0.076 A 
ATOM     12  C   UNL     1     -47.504  29.085  24.201  1.00  0.00     0.001 A 
ATOM     13  H   UNL     1     -46.755  27.390  23.077  1.00  0.00     0.063 H 
ATOM     14  C   UNL     1     -48.474  30.793  25.574  1.00  0.00     0.007 A 
ATOM     15  C   UNL     1     -46.819  30.072  23.475  1.00  0.00    -0.049 A 
ATOM     16  H   UNL     1     -49.123  31.078  26.399  1.00  0.00     0.069 H 
ATOM     17  C   UNL     1     -46.967  31.422  23.803  1.00  0.00    -0.019 A 
ATOM     18  H   UNL     1     -46.163  29.797  22.652  1.00  0.00     0.063 H 
ATOM     19  H   UNL     1     -46.405  32.148  23.227  1.00  0.00     0.066 H 
BRANCH   6  20
ATOM     20  N   UNL     1     -49.603  26.252  26.424  1.00  0.00    -0.373 N 
ATOM     21  H   UNL     1     -49.446  26.400  27.417  1.00  0.00     0.161 HD
BRANCH  20  22
ATOM     22  C   UNL     1     -51.020  26.195  26.104  1.00  0.00     0.005 C 
ATOM     23  H   UNL     1     -51.187  26.106  25.025  1.00  0.00     0.045 H 
ATOM     24  H   UNL     1     -51.517  25.368  26.624  1.00  0.00     0.045 H 
ATOM     25  H   UNL     1     -51.496  27.122  26.437  1.00  0.00     0.045 H 
ENDBRANCH  20  22
ENDBRANCH   6  20
ENDBRANCH   4   5
ENDBRANCH   1   4
BRANCH   1  26
ATOM     26  C   UNL     1     -47.227  34.999  26.572  1.00  0.00     0.010 A 
ATOM     27  C   UNL     1     -48.536  35.201  26.986  1.00  0.00     0.034 A 
ATOM     28  C   UNL     1     -46.237  35.815  27.140  1.00  0.00    -0.028 A 
ATOM     29  N   UNL     1     -48.907  36.148  27.871  1.00  0.00    -0.262 NA
ATOM     30  H   UNL     1     -49.353  34.592  26.608  1.00  0.00     0.084 H 
ATOM     31  C   UNL     1     -46.579  36.812  28.064  1.00  0.00     0.066 A 
ATOM     32  H   UNL     1     -45.207  35.635  26.847  1.00  0.00     0.065 H 
ATOM     33  C   UNL     1     -47.926  36.933  28.387  1.00  0.00     0.051 A 
ATOM     34  H   UNL     1     -48.313  37.682  29.068  1.00  0.00     0.086 H 
BRANCH  31  35
ATOM     35  N   UNL     1     -45.583  37.666  28.637  1.00  0.00    -0.300 N 
ATOM     36  C   UNL     1     -44.919  37.426  29.834  1.00  0.00     0.012 A 
ATOM     37  C   UNL     1     -45.089  38.870  28.131  1.00  0.00     0.152 A 
ATOM     38  C   UNL     1     -44.025  38.444  30.077  1.00  0.00    -0.031 A 
ATOM     39  H   UNL     1     -45.110  36.543  30.425  1.00  0.00     0.082 H 
ATOM     40  C   UNL     1     -44.124  39.358  29.003  1.00  0.00     0.062 A 
ATOM     41  N   UNL     1     -45.476  39.490  27.001  1.00  0.00    -0.194 NA
ATOM     42  H   UNL     1     -43.372  38.519  30.937  1.00  0.00     0.065 H 
ATOM     43  C   UNL     1     -43.513  40.566  28.658  1.00  0.00     0.138 A 
ATOM     44  C   UNL     1     -44.836  40.638  26.754  1.00  0.00     0.226 A 
ATOM     45  N   UNL     1     -43.885  41.186  27.526  1.00  0.00    -0.195 NA
BRANCH  43  46
ATOM     46  N   UNL     1     -42.520  41.171  29.420  1.00  0.00    -0.383 N 
ATOM     47  H   UNL     1     -42.323  42.098  29.059  1.00  0.00     0.158 HD
ATOM     48  H   UNL     1     -41.716  40.587  29.602  1.00  0.00     0.158 HD
ENDBRANCH  43  46
BRANCH  44  49
ATOM     49  N   UNL     1     -45.225  41.278  25.580  1.00  0.00    -0.357 N 
ATOM     50  H   UNL     1     -46.097  41.748  25.795  1.00  0.00     0.163 HD
BRANCH  49  51
ATOM     51  C   UNL     1     -44.204  42.118  24.996  1.00  0.00     0.006 C 
ATOM     52  H   UNL     1     -44.395  43.180  25.185  1.00  0.00     0.045 H 
ATOM     53  H   UNL     1     -44.197  41.971  23.911  1.00  0.00     0.045 H 
ATOM     54  H   UNL     1     -43.205  41.857  25.364  1.00  0.00     0.045 H 
ENDBRANCH  49  51
ENDBRANCH  44  49
ENDBRANCH  31  35
ENDBRANCH   1  26
TORSDOF 9
ENDMDL
MODEL 3
REMARK VINA RESULT:      -9.3      1.407      2.598
REMARK SMILES CNc1ccc2ccc(OCc3cncc(-n4ccc5c(N)nc(NC)nc54)c3)cc2n1
REMARK SMILES IDX 11 1 10 4 9 5 3 6 4 7 32 8 5 9 31 11 6 12 30 14 7 15 8 17
REMARK SMILES IDX 2 20 1 22 12 26 13 27 29 28 14 29 16 31 15 33 17 35 18 36
REMARK SMILES IDX 28 37 19 38 20 40 27 41 21 43 24 44 23 45 22 46 25 49 26 51
REMARK H PARENT 11 2 11 3 4 10 5 13 30 16 7 18 8 19 2 21 1 23 1 24 1 25 13 30
REMARK H PARENT 29 32 15 34 18 39 19 42 22 47 22 48 25 50 26 52 26 53 26 54
REMARK Flexibility Score: inf
ROOT
ATOM      1  C   UNL     1     -46.501  37.319  27.059  1.00  0.00     0.115 C 
ATOM      2  H   UNL     1     -46.756  38.163  26.407  1.00  0.00     0.076 H 
ATOM      3  H   UNL     1     -45.488  37.009  26.775  1.00  0.00     0.076 H 
ENDROOT
BRANCH   1   4
ATOM      4  O   UNL     1     -46.426  37.735  28.426  1.00  0.00    -0.489 OA
BRANCH   4   5
ATOM      5  C   UNL     1     -45.322  38.428  28.842  1.00  0.00     0.122 A 
ATOM      6  C   UNL     1     -42.430  42.026  27.650  1.00  0.00     0.126 A 
ATOM      7  C   UNL     1     -41.648  41.832  28.784  1.00  0.00    -0.019 A 
ATOM      8  N   UNL     1     -43.508  41.257  27.397  1.00  0.00    -0.231 NA
ATOM      9  C   UNL     1     -41.972  40.810  29.670  1.00  0.00    -0.049 A 
ATOM     10  H   UNL     1     -40.802  42.479  28.985  1.00  0.00     0.066 H 
ATOM     11  C   UNL     1     -43.829  40.268  28.251  1.00  0.00     0.076 A 
ATOM     12  C   UNL     1     -43.081  40.002  29.412  1.00  0.00     0.001 A 
ATOM     13  H   UNL     1     -41.362  40.658  30.557  1.00  0.00     0.063 H 
ATOM     14  C   UNL     1     -44.935  39.470  27.991  1.00  0.00     0.007 A 
ATOM     15  C   UNL     1     -43.453  38.956  30.271  1.00  0.00    -0.049 A 
ATOM     16  H   UNL     1     -45.518  39.670  27.094  1.00  0.00     0.069 H 
ATOM     17  C   UNL     1     -44.571  38.169  29.985  1.00  0.00    -0.019 A 
ATOM     18  H   UNL     1     -42.873  38.743  31.166  1.00  0.00     0.063 H 
ATOM     19  H   UNL     1     -44.811  37.360  30.666  1.00  0.00     0.066 H 
BRANCH   6  20
ATOM     20  N   UNL     1     -42.089  43.086  26.791  1.00  0.00    -0.373 N 
ATOM     21  H   UNL     1     -41.124  42.970  26.493  1.00  0.00     0.161 HD
BRANCH  20  22
ATOM     22  C   UNL     1     -42.987  43.249  25.660  1.00  0.00     0.005 C 
ATOM     23  H   UNL     1     -42.847  44.218  25.168  1.00  0.00     0.045 H 
ATOM     24  H   UNL     1     -42.863  42.443  24.928  1.00  0.00     0.045 H 
ATOM     25  H   UNL     1     -44.020  43.207  26.018  1.00  0.00     0.045 H 
ENDBRANCH  20  22
ENDBRANCH   6  20
ENDBRANCH   4   5
ENDBRANCH   1   4
BRANCH   1  26
ATOM     26  C   UNL     1     -47.410  36.138  26.845  1.00  0.00     0.010 A 
ATOM     27  C   UNL     1     -48.687  36.138  27.389  1.00  0.00     0.034 A 
ATOM     28  C   UNL     1     -47.043  35.034  26.060  1.00  0.00    -0.028 A 
ATOM     29  N   UNL     1     -49.571  35.133  27.231  1.00  0.00    -0.262 NA
ATOM     30  H   UNL     1     -49.050  36.969  27.988  1.00  0.00     0.084 H 
ATOM     31  C   UNL     1     -47.933  33.966  25.871  1.00  0.00     0.066 A 
ATOM     32  H   UNL     1     -46.059  35.046  25.602  1.00  0.00     0.065 H 
ATOM     33  C   UNL     1     -49.177  34.071  26.482  1.00  0.00     0.051 A 
ATOM     34  H   UNL     1     -49.936  33.300  26.428  1.00  0.00     0.086 H 
BRANCH  31  35
ATOM     35  N   UNL     1     -47.565  32.824  25.090  1.00  0.00    -0.300 N 
ATOM     36  C   UNL     1     -46.261  32.445  24.796  1.00  0.00     0.012 A 
ATOM     37  C   UNL     1     -48.407  31.887  24.488  1.00  0.00     0.152 A 
ATOM     38  C   UNL     1     -46.275  31.298  24.035  1.00  0.00    -0.031 A 
ATOM     39  H   UNL     1     -45.409  33.002  25.159  1.00  0.00     0.082 H 
ATOM     40  C   UNL     1     -47.627  30.938  23.840  1.00  0.00     0.062 A 
ATOM     41  N   UNL     1     -49.753  31.887  24.498  1.00  0.00    -0.194 NA
ATOM     42  H   UNL     1     -45.402  30.779  23.661  1.00  0.00     0.065 H 
ATOM     43  C   UNL     1     -48.303  29.912  23.174  1.00  0.00     0.138 A 
ATOM     44  C   UNL     1     -50.311  30.869  23.835  1.00  0.00     0.226 A 
ATOM     45  N   UNL     1     -49.646  29.898  23.188  1.00  0.00    -0.195 NA
BRANCH  43  46
ATOM     46  N   UNL     1     -47.662  28.883  22.496  1.00  0.00    -0.383 N 
ATOM     47  H   UNL     1     -48.229  28.042  22.525  1.00  0.00     0.158 HD
ATOM     48  H   UNL     1     -46.687  28.767  22.732  1.00  0.00     0.158 HD
ENDBRANCH  43  46
BRANCH  44  49
ATOM     49  N   UNL     1     -51.703  30.858  23.852  1.00  0.00    -0.357 N 
ATOM     50  H   UNL     1     -51.995  31.600  23.226  1.00  0.00     0.163 HD
BRANCH  49  51
ATOM     51  C   UNL     1     -52.290  29.564  23.585  1.00  0.00     0.006 C 
ATOM     52  H   UNL     1     -51.712  29.003  22.842  1.00  0.00     0.045 H 
ATOM     53  H   UNL     1     -53.298  29.705  23.183  1.00  0.00     0.045 H 
ATOM     54  H   UNL     1     -52.386  28.966  24.498  1.00  0.00     0.045 H 
ENDBRANCH  49  51
ENDBRANCH  44  49
ENDBRANCH  31  35
ENDBRANCH   1  26
TORSDOF 9
ENDMDL
MODEL 4
REMARK VINA RESULT:      -9.2      1.769      2.511
REMARK SMILES CNc1ccc2ccc(OCc3cncc(-n4ccc5c(N)nc(NC)nc54)c3)cc2n1
REMARK SMILES IDX 11 1 10 4 9 5 3 6 4 7 32 8 5 9 31 11 6 12 30 14 7 15 8 17
REMARK SMILES IDX 2 20 1 22 12 26 13 27 29 28 14 29 16 31 15 33 17 35 18 36
REMARK SMILES IDX 28 37 19 38 20 40 27 41 21 43 24 44 23 45 22 46 25 49 26 51
REMARK H PARENT 11 2 11 3 4 10 5 13 30 16 7 18 8 19 2 21 1 23 1 24 1 25 13 30
REMARK H PARENT 29 32 15 34 18 39 19 42 22 47 22 48 25 50 26 52 26 53 26 54
REMARK Flexibility Score: inf
ROOT
ATOM      1  C   UNL     1     -48.836  35.192  27.111  1.00  0.00     0.115 C 
ATOM      2  H   UNL     1     -49.008  34.866  28.144  1.00  0.00     0.076 H 
ATOM      3  H   UNL     1     -49.823  35.225  26.633  1.00  0.00     0.076 H 
ENDROOT
BRANCH   1   4
ATOM      4  O   UNL     1     -48.327  36.528  27.075  1.00  0.00    -0.489 OA
BRANCH   4   5
ATOM      5  C   UNL     1     -47.355  36.884  27.968  1.00  0.00     0.122 A 
ATOM      6  C   UNL     1     -43.781  39.964  28.658  1.00  0.00     0.126 A 
ATOM      7  C   UNL     1     -43.473  39.400  29.891  1.00  0.00    -0.019 A 
ATOM      8  N   UNL     1     -44.797  39.499  27.903  1.00  0.00    -0.231 NA
ATOM      9  C   UNL     1     -44.216  38.318  30.352  1.00  0.00    -0.049 A 
ATOM     10  H   UNL     1     -42.672  39.807  30.497  1.00  0.00     0.066 H 
ATOM     11  C   UNL     1     -45.521  38.453  28.342  1.00  0.00     0.076 A 
ATOM     12  C   UNL     1     -45.263  37.821  29.573  1.00  0.00     0.001 A 
ATOM     13  H   UNL     1     -43.976  37.876  31.315  1.00  0.00     0.063 H 
ATOM     14  C   UNL     1     -46.563  37.967  27.565  1.00  0.00     0.007 A 
ATOM     15  C   UNL     1     -46.044  36.731  29.987  1.00  0.00    -0.049 A 
ATOM     16  H   UNL     1     -46.768  38.451  26.613  1.00  0.00     0.069 H 
ATOM     17  C   UNL     1     -47.087  36.262  29.185  1.00  0.00    -0.019 A 
ATOM     18  H   UNL     1     -45.843  36.236  30.934  1.00  0.00     0.063 H 
ATOM     19  H   UNL     1     -47.652  35.406  29.536  1.00  0.00     0.066 H 
BRANCH   6  20
ATOM     20  N   UNL     1     -43.027  41.075  28.237  1.00  0.00    -0.373 N 
ATOM     21  H   UNL     1     -42.067  40.781  28.084  1.00  0.00     0.161 HD
BRANCH  20  22
ATOM     22  C   UNL     1     -43.573  41.762  27.078  1.00  0.00     0.005 C 
ATOM     23  H   UNL     1     -43.926  42.767  27.333  1.00  0.00     0.045 H 
ATOM     24  H   UNL     1     -42.842  41.823  26.265  1.00  0.00     0.045 H 
ATOM     25  H   UNL     1     -44.432  41.196  26.703  1.00  0.00     0.045 H 
ENDBRANCH  20  22
ENDBRANCH   6  20
ENDBRANCH   4   5
ENDBRANCH   1   4
BRANCH   1  26
ATOM     26  C   UNL     1     -47.993  34.212  26.337  1.00  0.00     0.010 A 
ATOM     27  C   UNL     1     -46.646  34.469  26.129  1.00  0.00     0.034 A 
ATOM     28  C   UNL     1     -48.501  32.998  25.850  1.00  0.00    -0.028 A 
ATOM     29  N   UNL     1     -45.816  33.640  25.466  1.00  0.00    -0.262 NA
ATOM     30  H   UNL     1     -46.176  35.378  26.498  1.00  0.00     0.084 H 
ATOM     31  C   UNL     1     -47.673  32.106  25.154  1.00  0.00     0.066 A 
ATOM     32  H   UNL     1     -49.546  32.775  26.043  1.00  0.00     0.065 H 
ATOM     33  C   UNL     1     -46.344  32.482  24.991  1.00  0.00     0.051 A 
ATOM     34  H   UNL     1     -45.617  31.888  24.450  1.00  0.00     0.086 H 
BRANCH  31  35
ATOM     35  N   UNL     1     -48.181  30.873  24.634  1.00  0.00    -0.300 N 
ATOM     36  C   UNL     1     -48.702  29.837  25.400  1.00  0.00     0.012 A 
ATOM     37  C   UNL     1     -48.258  30.471  23.299  1.00  0.00     0.152 A 
ATOM     38  C   UNL     1     -49.104  28.812  24.576  1.00  0.00    -0.031 A 
ATOM     39  H   UNL     1     -48.769  29.903  26.476  1.00  0.00     0.082 H 
ATOM     40  C   UNL     1     -48.830  29.206  23.247  1.00  0.00     0.062 A 
ATOM     41  N   UNL     1     -47.839  31.160  22.222  1.00  0.00    -0.194 NA
ATOM     42  H   UNL     1     -49.547  27.878  24.900  1.00  0.00     0.065 H 
ATOM     43  C   UNL     1     -48.990  28.636  21.981  1.00  0.00     0.138 A 
ATOM     44  C   UNL     1     -48.032  30.536  21.056  1.00  0.00     0.226 A 
ATOM     45  N   UNL     1     -48.585  29.322  20.900  1.00  0.00    -0.195 NA
BRANCH  43  46
ATOM     46  N   UNL     1     -49.560  27.387  21.767  1.00  0.00    -0.383 N 
ATOM     47  H   UNL     1     -49.185  26.716  22.428  1.00  0.00     0.158 HD
ATOM     48  H   UNL     1     -49.577  27.093  20.800  1.00  0.00     0.158 HD
ENDBRANCH  43  46
BRANCH  44  49
ATOM     49  N   UNL     1     -47.611  31.250  19.938  1.00  0.00    -0.357 N 
ATOM     50  H   UNL     1     -48.300  31.980  19.797  1.00  0.00     0.163 HD
BRANCH  49  51
ATOM     51  C   UNL     1     -46.240  31.707  20.009  1.00  0.00     0.006 C 
ATOM     52  H   UNL     1     -45.536  30.923  19.709  1.00  0.00     0.045 H 
ATOM     53  H   UNL     1     -46.008  31.984  21.042  1.00  0.00     0.045 H 
ATOM     54  H   UNL     1     -46.078  32.598  19.392  1.00  0.00     0.045 H 
ENDBRANCH  49  51
ENDBRANCH  44  49
ENDBRANCH  31  35
ENDBRANCH   1  26
TORSDOF 9
ENDMDL
MODEL 5
REMARK VINA RESULT:      -9.2      1.953     10.547
REMARK SMILES CNc1ccc2ccc(OCc3cncc(-n4ccc5c(N)nc(NC)nc54)c3)cc2n1
REMARK SMILES IDX 11 1 10 4 9 5 3 6 4 7 32 8 5 9 31 11 6 12 30 14 7 15 8 17
REMARK SMILES IDX 2 20 1 22 12 26 13 27 29 28 14 29 16 31 15 33 17 35 18 36
REMARK SMILES IDX 28 37 19 38 20 40 27 41 21 43 24 44 23 45 22 46 25 49 26 51
REMARK H PARENT 11 2 11 3 4 10 5 13 30 16 7 18 8 19 2 21 1 23 1 24 1 25 13 30
REMARK H PARENT 29 32 15 34 18 39 19 42 22 47 22 48 25 50 26 52 26 53 26 54
REMARK Flexibility Score: inf
ROOT
ATOM      1  C   UNL     1     -46.963  35.184  26.080  1.00  0.00     0.115 C 
ATOM      2  H   UNL     1     -45.975  35.084  25.613  1.00  0.00     0.076 H 
ATOM      3  H   UNL     1     -47.677  35.313  25.258  1.00  0.00     0.076 H 
ENDROOT
BRANCH   1   4
ATOM      4  O   UNL     1     -47.334  33.977  26.751  1.00  0.00    -0.489 OA
BRANCH   4   5
ATOM      5  C   UNL     1     -47.563  32.855  26.004  1.00  0.00     0.122 A 
ATOM      6  C   UNL     1     -46.470  30.769  21.858  1.00  0.00     0.126 A 
ATOM      7  C   UNL     1     -47.276  29.673  22.146  1.00  0.00    -0.019 A 
ATOM      8  N   UNL     1     -46.339  31.795  22.723  1.00  0.00    -0.231 NA
ATOM      9  C   UNL     1     -47.979  29.638  23.346  1.00  0.00    -0.049 A 
ATOM     10  H   UNL     1     -47.345  28.844  21.451  1.00  0.00     0.066 H 
ATOM     11  C   UNL     1     -47.015  31.768  23.887  1.00  0.00     0.076 A 
ATOM     12  C   UNL     1     -47.859  30.701  24.244  1.00  0.00     0.001 A 
ATOM     13  H   UNL     1     -48.609  28.782  23.572  1.00  0.00     0.063 H 
ATOM     14  C   UNL     1     -46.888  32.825  24.777  1.00  0.00     0.007 A 
ATOM     15  C   UNL     1     -48.547  30.720  25.468  1.00  0.00    -0.049 A 
ATOM     16  H   UNL     1     -46.237  33.654  24.508  1.00  0.00     0.069 H 
ATOM     17  C   UNL     1     -48.400  31.796  26.345  1.00  0.00    -0.019 A 
ATOM     18  H   UNL     1     -49.205  29.899  25.744  1.00  0.00     0.063 H 
ATOM     19  H   UNL     1     -48.964  31.777  27.271  1.00  0.00     0.066 H 
BRANCH   6  20
ATOM     20  N   UNL     1     -45.752  30.757  20.649  1.00  0.00    -0.373 N 
ATOM     21  H   UNL     1     -45.873  29.851  20.205  1.00  0.00     0.161 HD
BRANCH  20  22
ATOM     22  C   UNL     1     -46.083  31.848  19.748  1.00  0.00     0.005 C 
ATOM     23  H   UNL     1     -47.036  32.318  20.015  1.00  0.00     0.045 H 
ATOM     24  H   UNL     1     -45.291  32.606  19.726  1.00  0.00     0.045 H 
ATOM     25  H   UNL     1     -46.182  31.452  18.733  1.00  0.00     0.045 H 
ENDBRANCH  20  22
ENDBRANCH   6  20
ENDBRANCH   4   5
ENDBRANCH   1   4
BRANCH   1  26
ATOM     26  C   UNL     1     -47.058  36.406  26.956  1.00  0.00     0.010 A 
ATOM     27  C   UNL     1     -48.295  36.842  27.406  1.00  0.00     0.034 A 
ATOM     28  C   UNL     1     -45.927  37.112  27.394  1.00  0.00    -0.028 A 
ATOM     29  N   UNL     1     -48.470  37.912  28.206  1.00  0.00    -0.262 NA
ATOM     30  H   UNL     1     -49.214  36.332  27.128  1.00  0.00     0.084 H 
ATOM     31  C   UNL     1     -46.063  38.232  28.227  1.00  0.00     0.066 A 
ATOM     32  H   UNL     1     -44.953  36.752  27.075  1.00  0.00     0.065 H 
ATOM     33  C   UNL     1     -47.357  38.585  28.596  1.00  0.00     0.051 A 
ATOM     34  H   UNL     1     -47.588  39.444  29.215  1.00  0.00     0.086 H 
BRANCH  31  35
ATOM     35  N   UNL     1     -44.920  38.974  28.665  1.00  0.00    -0.300 N 
ATOM     36  C   UNL     1     -44.122  38.643  29.754  1.00  0.00     0.012 A 
ATOM     37  C   UNL     1     -44.389  40.141  28.111  1.00  0.00     0.152 A 
ATOM     38  C   UNL     1     -43.110  39.566  29.882  1.00  0.00    -0.031 A 
ATOM     39  H   UNL     1     -44.313  37.765  30.354  1.00  0.00     0.082 H 
ATOM     40  C   UNL     1     -43.270  40.513  28.846  1.00  0.00     0.062 A 
ATOM     41  N   UNL     1     -44.868  40.824  27.055  1.00  0.00    -0.194 NA
ATOM     42  H   UNL     1     -42.341  39.558  30.642  1.00  0.00     0.065 H 
ATOM     43  C   UNL     1     -42.601  41.669  28.434  1.00  0.00     0.138 A 
ATOM     44  C   UNL     1     -44.162  41.914  26.735  1.00  0.00     0.226 A 
ATOM     45  N   UNL     1     -43.065  42.350  27.374  1.00  0.00    -0.195 NA
BRANCH  43  46
ATOM     46  N   UNL     1     -41.459  42.159  29.056  1.00  0.00    -0.383 N 
ATOM     47  H   UNL     1     -41.152  41.513  29.775  1.00  0.00     0.158 HD
ATOM     48  H   UNL     1     -41.512  43.130  29.328  1.00  0.00     0.158 HD
ENDBRANCH  43  46
BRANCH  44  49
ATOM     49  N   UNL     1     -44.648  42.618  25.637  1.00  0.00    -0.357 N 
ATOM     50  H   UNL     1     -44.425  42.054  24.824  1.00  0.00     0.163 HD
BRANCH  49  51
ATOM     51  C   UNL     1     -46.035  43.010  25.750  1.00  0.00     0.006 C 
ATOM     52  H   UNL     1     -46.191  43.713  26.575  1.00  0.00     0.045 H 
ATOM     53  H   UNL     1     -46.642  42.122  25.952  1.00  0.00     0.045 H 
ATOM     54  H   UNL     1     -46.408  43.451  24.819  1.00  0.00     0.045 H 
ENDBRANCH  49  51
ENDBRANCH  44  49
ENDBRANCH  31  35
ENDBRANCH   1  26
TORSDOF 9
ENDMDL
MODEL 6
REMARK VINA RESULT:      -9.2      2.425      3.050
REMARK SMILES CNc1ccc2ccc(OCc3cncc(-n4ccc5c(N)nc(NC)nc54)c3)cc2n1
REMARK SMILES IDX 11 1 10 4 9 5 3 6 4 7 32 8 5 9 31 11 6 12 30 14 7 15 8 17
REMARK SMILES IDX 2 20 1 22 12 26 13 27 29 28 14 29 16 31 15 33 17 35 18 36
REMARK SMILES IDX 28 37 19 38 20 40 27 41 21 43 24 44 23 45 22 46 25 49 26 51
REMARK H PARENT 11 2 11 3 4 10 5 13 30 16 7 18 8 19 2 21 1 23 1 24 1 25 13 30
REMARK H PARENT 29 32 15 34 18 39 19 42 22 47 22 48 25 50 26 52 26 53 26 54
REMARK Flexibility Score: inf
ROOT
ATOM      1  C   UNL     1     -48.484  35.198  27.111  1.00  0.00     0.115 C 
ATOM      2  H   UNL     1     -49.568  35.203  27.276  1.00  0.00     0.076 H 
ATOM      3  H   UNL     1     -48.248  36.140  26.601  1.00  0.00     0.076 H 
ENDROOT
BRANCH   1   4
ATOM      4  O   UNL     1     -47.779  35.225  28.355  1.00  0.00    -0.489 OA
BRANCH   4   5
ATOM      5  C   UNL     1     -46.871  36.224  28.573  1.00  0.00     0.122 A 
ATOM      6  C   UNL     1     -45.081  40.208  26.661  1.00  0.00     0.126 A 
ATOM      7  C   UNL     1     -44.213  40.385  27.733  1.00  0.00    -0.019 A 
ATOM      8  N   UNL     1     -45.936  39.166  26.611  1.00  0.00    -0.231 NA
ATOM      9  C   UNL     1     -44.210  39.459  28.771  1.00  0.00    -0.049 A 
ATOM     10  H   UNL     1     -43.553  41.245  27.769  1.00  0.00     0.066 H 
ATOM     11  C   UNL     1     -45.941  38.267  27.613  1.00  0.00     0.076 A 
ATOM     12  C   UNL     1     -45.085  38.372  28.724  1.00  0.00     0.001 A 
ATOM     13  H   UNL     1     -43.532  39.597  29.609  1.00  0.00     0.063 H 
ATOM     14  C   UNL     1     -46.816  37.191  27.562  1.00  0.00     0.007 A 
ATOM     15  C   UNL     1     -45.125  37.406  29.742  1.00  0.00    -0.049 A 
ATOM     16  H   UNL     1     -47.481  37.104  26.705  1.00  0.00     0.069 H 
ATOM     17  C   UNL     1     -46.015  36.333  29.665  1.00  0.00    -0.019 A 
ATOM     18  H   UNL     1     -44.459  37.480  30.600  1.00  0.00     0.063 H 
ATOM     19  H   UNL     1     -45.998  35.601  30.465  1.00  0.00     0.066 H 
BRANCH   6  20
ATOM     20  N   UNL     1     -45.076  41.179  25.644  1.00  0.00    -0.373 N 
ATOM     21  H   UNL     1     -45.262  40.723  24.755  1.00  0.00     0.161 HD
BRANCH  20  22
ATOM     22  C   UNL     1     -45.978  42.294  25.879  1.00  0.00     0.005 C 
ATOM     23  H   UNL     1     -46.575  42.146  26.786  1.00  0.00     0.045 H 
ATOM     24  H   UNL     1     -45.436  43.244  25.944  1.00  0.00     0.045 H 
ATOM     25  H   UNL     1     -46.672  42.372  25.036  1.00  0.00     0.045 H 
ENDBRANCH  20  22
ENDBRANCH   6  20
ENDBRANCH   4   5
ENDBRANCH   1   4
BRANCH   1  26
ATOM     26  C   UNL     1     -48.051  34.074  26.205  1.00  0.00     0.010 A 
ATOM     27  C   UNL     1     -46.724  33.969  25.817  1.00  0.00     0.034 A 
ATOM     28  C   UNL     1     -48.933  33.074  25.767  1.00  0.00    -0.028 A 
ATOM     29  N   UNL     1     -46.247  32.987  25.026  1.00  0.00    -0.262 NA
ATOM     30  H   UNL     1     -45.978  34.693  26.137  1.00  0.00     0.084 H 
ATOM     31  C   UNL     1     -48.479  32.034  24.943  1.00  0.00     0.066 A 
ATOM     32  H   UNL     1     -49.965  33.131  26.099  1.00  0.00     0.065 H 
ATOM     33  C   UNL     1     -47.131  32.046  24.604  1.00  0.00     0.051 A 
ATOM     34  H   UNL     1     -46.672  31.311  23.954  1.00  0.00     0.086 H 
BRANCH  31  35
ATOM     35  N   UNL     1     -49.371  31.019  24.471  1.00  0.00    -0.300 N 
ATOM     36  C   UNL     1     -50.593  31.255  23.851  1.00  0.00     0.012 A 
ATOM     37  C   UNL     1     -49.205  29.634  24.530  1.00  0.00     0.152 A 
ATOM     38  C   UNL     1     -51.181  30.055  23.520  1.00  0.00    -0.031 A 
ATOM     39  H   UNL     1     -50.956  32.256  23.669  1.00  0.00     0.082 H 
ATOM     40  C   UNL     1     -50.308  29.028  23.943  1.00  0.00     0.062 A 
ATOM     41  N   UNL     1     -48.171  28.967  25.075  1.00  0.00    -0.194 NA
ATOM     42  H   UNL     1     -52.137  29.936  23.028  1.00  0.00     0.065 H 
ATOM     43  C   UNL     1     -50.318  27.630  23.910  1.00  0.00     0.138 A 
ATOM     44  C   UNL     1     -48.268  27.636  24.997  1.00  0.00     0.226 A 
ATOM     45  N   UNL     1     -49.285  26.957  24.442  1.00  0.00    -0.195 NA
BRANCH  43  46
ATOM     46  N   UNL     1     -51.342  26.882  23.343  1.00  0.00    -0.383 N 
ATOM     47  H   UNL     1     -50.980  25.995  23.009  1.00  0.00     0.158 HD
ATOM     48  H   UNL     1     -51.927  27.392  22.696  1.00  0.00     0.158 HD
ENDBRANCH  43  46
BRANCH  44  49
ATOM     49  N   UNL     1     -47.195  26.942  25.550  1.00  0.00    -0.357 N 
ATOM     50  H   UNL     1     -46.455  27.624  25.671  1.00  0.00     0.163 HD
BRANCH  49  51
ATOM     51  C   UNL     1     -47.528  26.182  26.733  1.00  0.00     0.006 C 
ATOM     52  H   UNL     1     -48.573  25.853  26.723  1.00  0.00     0.045 H 
ATOM     53  H   UNL     1     -47.388  26.814  27.616  1.00  0.00     0.045 H 
ATOM     54  H   UNL     1     -46.874  25.311  26.853  1.00  0.00     0.045 H 
ENDBRANCH  49  51
ENDBRANCH  44  49
ENDBRANCH  31  35
ENDBRANCH   1  26
TORSDOF 9
ENDMDL
MODEL 7
REMARK VINA RESULT:      -9.0      2.048     10.688
REMARK SMILES CNc1ccc2ccc(OCc3cncc(-n4ccc5c(N)nc(NC)nc54)c3)cc2n1
REMARK SMILES IDX 11 1 10 4 9 5 3 6 4 7 32 8 5 9 31 11 6 12 30 14 7 15 8 17
REMARK SMILES IDX 2 20 1 22 12 26 13 27 29 28 14 29 16 31 15 33 17 35 18 36
REMARK SMILES IDX 28 37 19 38 20 40 27 41 21 43 24 44 23 45 22 46 25 49 26 51
REMARK H PARENT 11 2 11 3 4 10 5 13 30 16 7 18 8 19 2 21 1 23 1 24 1 25 13 30
REMARK H PARENT 29 32 15 34 18 39 19 42 22 47 22 48 25 50 26 52 26 53 26 54
REMARK Flexibility Score: inf
ROOT
ATOM      1  C   UNL     1     -46.202  37.466  28.263  1.00  0.00     0.115 C 
ATOM      2  H   UNL     1     -47.036  37.900  27.699  1.00  0.00     0.076 H 
ATOM      3  H   UNL     1     -46.626  37.109  29.209  1.00  0.00     0.076 H 
ENDROOT
BRANCH   1   4
ATOM      4  O   UNL     1     -45.680  36.314  27.595  1.00  0.00    -0.489 OA
BRANCH   4   5
ATOM      5  C   UNL     1     -46.557  35.395  27.088  1.00  0.00     0.122 A 
ATOM      6  C   UNL     1     -46.804  31.479  24.380  1.00  0.00     0.126 A 
ATOM      7  C   UNL     1     -48.185  31.410  24.527  1.00  0.00    -0.019 A 
ATOM      8  N   UNL     1     -46.079  32.451  24.969  1.00  0.00    -0.231 NA
ATOM      9  C   UNL     1     -48.840  32.375  25.285  1.00  0.00    -0.049 A 
ATOM     10  H   UNL     1     -48.747  30.604  24.070  1.00  0.00     0.066 H 
ATOM     11  C   UNL     1     -46.706  33.388  25.705  1.00  0.00     0.076 A 
ATOM     12  C   UNL     1     -48.100  33.392  25.891  1.00  0.00     0.001 A 
ATOM     13  H   UNL     1     -49.920  32.322  25.401  1.00  0.00     0.063 H 
ATOM     14  C   UNL     1     -45.964  34.394  26.309  1.00  0.00     0.007 A 
ATOM     15  C   UNL     1     -48.709  34.394  26.665  1.00  0.00    -0.049 A 
ATOM     16  H   UNL     1     -44.885  34.396  26.169  1.00  0.00     0.069 H 
ATOM     17  C   UNL     1     -47.938  35.394  27.261  1.00  0.00    -0.019 A 
ATOM     18  H   UNL     1     -49.787  34.404  26.805  1.00  0.00     0.063 H 
ATOM     19  H   UNL     1     -48.452  36.157  27.834  1.00  0.00     0.066 H 
BRANCH   6  20
ATOM     20  N   UNL     1     -46.172  30.470  23.630  1.00  0.00    -0.373 N 
ATOM     21  H   UNL     1     -46.598  29.576  23.860  1.00  0.00     0.161 HD
BRANCH  20  22
ATOM     22  C   UNL     1     -46.161  30.711  22.197  1.00  0.00     0.005 C 
ATOM     23  H   UNL     1     -46.232  29.776  21.630  1.00  0.00     0.045 H 
ATOM     24  H   UNL     1     -46.969  31.387  21.896  1.00  0.00     0.045 H 
ATOM     25  H   UNL     1     -45.216  31.191  21.926  1.00  0.00     0.045 H 
ENDBRANCH  20  22
ENDBRANCH   6  20
ENDBRANCH   4   5
ENDBRANCH   1   4
BRANCH   1  26
ATOM     26  C   UNL     1     -45.148  38.489  28.598  1.00  0.00     0.010 A 
ATOM     27  C   UNL     1     -44.437  38.387  29.785  1.00  0.00     0.034 A 
ATOM     28  C   UNL     1     -44.803  39.534  27.727  1.00  0.00    -0.028 A 
ATOM     29  N   UNL     1     -43.466  39.246  30.156  1.00  0.00    -0.262 NA
ATOM     30  H   UNL     1     -44.630  37.590  30.499  1.00  0.00     0.084 H 
ATOM     31  C   UNL     1     -43.800  40.449  28.073  1.00  0.00     0.066 A 
ATOM     32  H   UNL     1     -45.332  39.595  26.780  1.00  0.00     0.065 H 
ATOM     33  C   UNL     1     -43.171  40.257  29.298  1.00  0.00     0.051 A 
ATOM     34  H   UNL     1     -42.399  40.913  29.683  1.00  0.00     0.086 H 
BRANCH  31  35
ATOM     35  N   UNL     1     -43.452  41.532  27.204  1.00  0.00    -0.300 N 
ATOM     36  C   UNL     1     -42.154  41.906  26.876  1.00  0.00     0.012 A 
ATOM     37  C   UNL     1     -44.310  42.404  26.530  1.00  0.00     0.152 A 
ATOM     38  C   UNL     1     -42.188  42.978  26.013  1.00  0.00    -0.031 A 
ATOM     39  H   UNL     1     -41.294  41.378  27.260  1.00  0.00     0.082 H 
ATOM     40  C   UNL     1     -43.546  43.296  25.788  1.00  0.00     0.062 A 
ATOM     41  N   UNL     1     -45.654  42.416  26.585  1.00  0.00    -0.194 NA
ATOM     42  H   UNL     1     -41.324  43.478  25.594  1.00  0.00     0.065 H 
ATOM     43  C   UNL     1     -44.240  44.251  25.041  1.00  0.00     0.138 A 
ATOM     44  C   UNL     1     -46.229  43.365  25.839  1.00  0.00     0.226 A 
ATOM     45  N   UNL     1     -45.582  44.264  25.081  1.00  0.00    -0.195 NA
BRANCH  43  46
ATOM     46  N   UNL     1     -43.617  45.199  24.237  1.00  0.00    -0.383 N 
ATOM     47  H   UNL     1     -42.825  45.601  24.726  1.00  0.00     0.158 HD
ATOM     48  H   UNL     1     -44.246  45.856  23.797  1.00  0.00     0.158 HD
ENDBRANCH  43  46
BRANCH  44  49
ATOM     49  N   UNL     1     -47.621  43.374  25.884  1.00  0.00    -0.357 N 
ATOM     50  H   UNL     1     -47.893  42.487  26.292  1.00  0.00     0.163 HD
BRANCH  49  51
ATOM     51  C   UNL     1     -48.185  44.542  26.524  1.00  0.00     0.006 C 
ATOM     52  H   UNL     1     -47.575  44.874  27.371  1.00  0.00     0.045 H 
ATOM     53  H   UNL     1     -49.179  44.294  26.909  1.00  0.00     0.045 H 
ATOM     54  H   UNL     1     -48.310  45.370  25.818  1.00  0.00     0.045 H 
ENDBRANCH  49  51
ENDBRANCH  44  49
ENDBRANCH  31  35
ENDBRANCH   1  26
TORSDOF 9
ENDMDL
