MODEL 1
REMARK VINA RESULT:     -10.0      0.000      0.000
REMARK SMILES Nc1ncnc2c1ccn2[C@@H]1C[C@H](CCc2ccc3cccnc3n2)[C@@H](O)[C@H]1O
REMARK SMILES IDX 11 1 12 2 13 3 26 4 28 5 10 12 2 13 3 14 7 15 4 16 6 17 8 18
REMARK SMILES IDX 5 19 9 21 1 24 29 27 14 29 15 32 16 35 17 36 25 37 18 38
REMARK SMILES IDX 24 40 19 41 23 43 20 44 22 45 21 46 27 50
REMARK H PARENT 11 6 12 7 12 8 13 9 26 10 28 11 4 20 8 22 9 23 1 25 1 26 29 28
REMARK H PARENT 14 30 14 31 15 33 15 34 17 39 18 42 20 47 22 48 21 49 27 51
REMARK Flexibility Score: inf
ROOT
ATOM      1  C   UNL     1     -45.642  39.194  28.592  1.00  0.00     0.064 C 
ATOM      2  C   UNL     1     -45.217  37.711  28.691  1.00  0.00    -0.024 C 
ATOM      3  C   UNL     1     -46.529  36.921  28.641  1.00  0.00    -0.010 C 
ATOM      4  C   UNL     1     -47.379  37.743  27.675  1.00  0.00     0.085 C 
ATOM      5  C   UNL     1     -47.112  39.188  28.126  1.00  0.00     0.101 C 
ATOM      6  H   UNL     1     -45.585  39.635  29.596  1.00  0.00     0.056 H 
ATOM      7  H   UNL     1     -44.542  37.425  27.879  1.00  0.00     0.029 H 
ATOM      8  H   UNL     1     -44.681  37.520  29.628  1.00  0.00     0.029 H 
ATOM      9  H   UNL     1     -46.992  36.976  29.637  1.00  0.00     0.033 H 
ATOM     10  H   UNL     1     -47.072  37.623  26.637  1.00  0.00     0.063 H 
ATOM     11  H   UNL     1     -47.346  39.912  27.339  1.00  0.00     0.065 H 
ENDROOT
BRANCH   1  12
ATOM     12  N   UNL     1     -44.760  39.990  27.750  1.00  0.00    -0.327 N 
ATOM     13  C   UNL     1     -41.777  41.827  27.246  1.00  0.00     0.136 A 
ATOM     14  N   UNL     1     -41.180  41.722  28.450  1.00  0.00    -0.219 NA
ATOM     15  C   UNL     1     -43.021  41.210  27.048  1.00  0.00     0.061 A 
ATOM     16  C   UNL     1     -41.805  41.017  29.415  1.00  0.00     0.120 A 
ATOM     17  C   UNL     1     -43.551  40.521  28.127  1.00  0.00     0.145 A 
ATOM     18  C   UNL     1     -43.953  41.080  25.981  1.00  0.00    -0.031 A 
ATOM     19  N   UNL     1     -42.989  40.389  29.336  1.00  0.00    -0.218 NA
ATOM     20  H   UNL     1     -41.293  40.950  30.370  1.00  0.00     0.106 H 
ATOM     21  C   UNL     1     -45.016  40.328  26.442  1.00  0.00     0.007 A 
ATOM     22  H   UNL     1     -43.855  41.487  24.984  1.00  0.00     0.065 H 
ATOM     23  H   UNL     1     -45.919  40.002  25.944  1.00  0.00     0.082 H 
BRANCH  13  24
ATOM     24  N   UNL     1     -41.121  42.568  26.272  1.00  0.00    -0.383 N 
ATOM     25  H   UNL     1     -40.399  42.062  25.779  1.00  0.00     0.158 HD
ATOM     26  H   UNL     1     -41.795  43.064  25.700  1.00  0.00     0.158 HD
ENDBRANCH  13  24
ENDBRANCH   1  12
BRANCH   5  27
ATOM     27  O   UNL     1     -47.969  39.496  29.241  1.00  0.00    -0.388 OA
ATOM     28  H   UNL     1     -48.806  39.794  28.824  1.00  0.00     0.211 HD
ENDBRANCH   5  27
BRANCH   3  29
ATOM     29  C   UNL     1     -46.379  35.421  28.345  1.00  0.00    -0.042 C 
ATOM     30  H   UNL     1     -45.641  35.029  29.058  1.00  0.00     0.027 H 
ATOM     31  H   UNL     1     -47.324  34.921  28.593  1.00  0.00     0.027 H 
BRANCH  29  32
ATOM     32  C   UNL     1     -45.918  35.002  26.941  1.00  0.00    -0.010 C 
ATOM     33  H   UNL     1     -44.925  34.540  27.025  1.00  0.00     0.033 H 
ATOM     34  H   UNL     1     -45.782  35.878  26.299  1.00  0.00     0.033 H 
BRANCH  32  35
ATOM     35  C   UNL     1     -46.811  34.000  26.252  1.00  0.00     0.043 A 
ATOM     36  C   UNL     1     -48.170  33.946  26.525  1.00  0.00    -0.040 A 
ATOM     37  N   UNL     1     -46.216  33.160  25.373  1.00  0.00    -0.233 NA
ATOM     38  C   UNL     1     -48.938  33.002  25.857  1.00  0.00    -0.049 A 
ATOM     39  H   UNL     1     -48.627  34.617  27.245  1.00  0.00     0.064 H 
ATOM     40  C   UNL     1     -46.939  32.246  24.725  1.00  0.00     0.159 A 
ATOM     41  C   UNL     1     -48.325  32.137  24.941  1.00  0.00     0.019 A 
ATOM     42  H   UNL     1     -50.006  32.941  26.053  1.00  0.00     0.063 H 
ATOM     43  N   UNL     1     -46.312  31.445  23.862  1.00  0.00    -0.237 NA
ATOM     44  C   UNL     1     -49.051  31.167  24.236  1.00  0.00    -0.050 A 
ATOM     45  C   UNL     1     -47.030  30.518  23.190  1.00  0.00     0.029 A 
ATOM     46  C   UNL     1     -48.391  30.341  23.341  1.00  0.00    -0.043 A 
ATOM     47  H   UNL     1     -50.123  31.056  24.381  1.00  0.00     0.063 H 
ATOM     48  H   UNL     1     -46.457  29.902  22.504  1.00  0.00     0.084 H 
ATOM     49  H   UNL     1     -48.919  29.580  22.777  1.00  0.00     0.064 H 
ENDBRANCH  32  35
ENDBRANCH  29  32
ENDBRANCH   3  29
BRANCH   4  50
ATOM     50  O   UNL     1     -48.763  37.427  27.799  1.00  0.00    -0.390 OA
ATOM     51  H   UNL     1     -48.809  36.646  28.381  1.00  0.00     0.211 HD
ENDBRANCH   4  50
TORSDOF 7
ENDMDL
MODEL 2
REMARK VINA RESULT:     -10.0      1.853      9.234
REMARK SMILES Nc1ncnc2c1ccn2[C@@H]1C[C@H](CCc2ccc3cccnc3n2)[C@@H](O)[C@H]1O
REMARK SMILES IDX 11 1 12 2 13 3 26 4 28 5 10 12 2 13 3 14 7 15 4 16 6 17 8 18
REMARK SMILES IDX 5 19 9 21 1 24 29 27 14 29 15 32 16 35 17 36 25 37 18 38
REMARK SMILES IDX 24 40 19 41 23 43 20 44 22 45 21 46 27 50
REMARK H PARENT 11 6 12 7 12 8 13 9 26 10 28 11 4 20 8 22 9 23 1 25 1 26 29 28
REMARK H PARENT 14 30 14 31 15 33 15 34 17 39 18 42 20 47 22 48 21 49 27 51
REMARK Flexibility Score: inf
ROOT
ATOM      1  C   UNL     1     -47.272  34.235  27.261  1.00  0.00     0.064 C 
ATOM      2  C   UNL     1     -47.914  35.617  26.998  1.00  0.00    -0.024 C 
ATOM      3  C   UNL     1     -47.229  36.565  27.988  1.00  0.00    -0.010 C 
ATOM      4  C   UNL     1     -45.802  36.024  28.038  1.00  0.00     0.085 C 
ATOM      5  C   UNL     1     -46.013  34.503  28.111  1.00  0.00     0.101 C 
ATOM      6  H   UNL     1     -47.980  33.635  27.847  1.00  0.00     0.056 H 
ATOM      7  H   UNL     1     -47.771  35.943  25.963  1.00  0.00     0.029 H 
ATOM      8  H   UNL     1     -48.995  35.585  27.171  1.00  0.00     0.029 H 
ATOM      9  H   UNL     1     -47.690  36.409  28.974  1.00  0.00     0.033 H 
ATOM     10  H   UNL     1     -45.227  36.271  27.147  1.00  0.00     0.063 H 
ATOM     11  H   UNL     1     -45.122  33.952  27.795  1.00  0.00     0.065 H 
ENDROOT
BRANCH   1  12
ATOM     12  N   UNL     1     -47.012  33.481  26.043  1.00  0.00    -0.327 N 
ATOM     13  C   UNL     1     -47.486  30.631  23.999  1.00  0.00     0.136 A 
ATOM     14  N   UNL     1     -48.331  29.892  24.745  1.00  0.00    -0.219 NA
ATOM     15  C   UNL     1     -47.053  31.871  24.490  1.00  0.00     0.061 A 
ATOM     16  C   UNL     1     -48.733  30.385  25.934  1.00  0.00     0.120 A 
ATOM     17  C   UNL     1     -47.541  32.253  25.729  1.00  0.00     0.145 A 
ATOM     18  C   UNL     1     -46.200  32.919  24.045  1.00  0.00    -0.031 A 
ATOM     19  N   UNL     1     -48.385  31.552  26.499  1.00  0.00    -0.218 NA
ATOM     20  H   UNL     1     -49.418  29.765  26.506  1.00  0.00     0.106 H 
ATOM     21  C   UNL     1     -46.189  33.895  25.022  1.00  0.00     0.007 A 
ATOM     22  H   UNL     1     -45.656  32.958  23.110  1.00  0.00     0.065 H 
ATOM     23  H   UNL     1     -45.675  34.846  25.066  1.00  0.00     0.082 H 
BRANCH  13  24
ATOM     24  N   UNL     1     -47.076  30.098  22.785  1.00  0.00    -0.383 N 
ATOM     25  H   UNL     1     -47.035  29.088  22.765  1.00  0.00     0.158 HD
ATOM     26  H   UNL     1     -47.575  30.544  22.023  1.00  0.00     0.158 HD
ENDBRANCH  13  24
ENDBRANCH   1  12
BRANCH   5  27
ATOM     27  O   UNL     1     -46.268  34.130  29.477  1.00  0.00    -0.388 OA
ATOM     28  H   UNL     1     -46.824  33.325  29.405  1.00  0.00     0.211 HD
ENDBRANCH   5  27
BRANCH   3  29
ATOM     29  C   UNL     1     -47.405  38.062  27.690  1.00  0.00    -0.042 C 
ATOM     30  H   UNL     1     -48.472  38.222  27.486  1.00  0.00     0.027 H 
ATOM     31  H   UNL     1     -47.191  38.627  28.606  1.00  0.00     0.027 H 
BRANCH  29  32
ATOM     32  C   UNL     1     -46.623  38.662  26.511  1.00  0.00    -0.010 C 
ATOM     33  H   UNL     1     -47.317  39.260  25.904  1.00  0.00     0.033 H 
ATOM     34  H   UNL     1     -46.254  37.874  25.848  1.00  0.00     0.033 H 
BRANCH  32  35
ATOM     35  C   UNL     1     -45.486  39.574  26.902  1.00  0.00     0.043 A 
ATOM     36  C   UNL     1     -45.104  40.631  26.089  1.00  0.00    -0.040 A 
ATOM     37  N   UNL     1     -44.860  39.296  28.070  1.00  0.00    -0.233 NA
ATOM     38  C   UNL     1     -44.051  41.433  26.505  1.00  0.00    -0.049 A 
ATOM     39  H   UNL     1     -45.608  40.828  25.148  1.00  0.00     0.064 H 
ATOM     40  C   UNL     1     -43.844  40.055  28.482  1.00  0.00     0.159 A 
ATOM     41  C   UNL     1     -43.407  41.152  27.717  1.00  0.00     0.019 A 
ATOM     42  H   UNL     1     -43.734  42.269  25.886  1.00  0.00     0.063 H 
ATOM     43  N   UNL     1     -43.263  39.750  29.643  1.00  0.00    -0.237 NA
ATOM     44  C   UNL     1     -42.339  41.929  28.188  1.00  0.00    -0.050 A 
ATOM     45  C   UNL     1     -42.237  40.513  30.081  1.00  0.00     0.029 A 
ATOM     46  C   UNL     1     -41.743  41.604  29.396  1.00  0.00    -0.043 A 
ATOM     47  H   UNL     1     -41.976  42.783  27.620  1.00  0.00     0.063 H 
ATOM     48  H   UNL     1     -41.812  40.209  31.033  1.00  0.00     0.084 H 
ATOM     49  H   UNL     1     -40.916  42.183  29.793  1.00  0.00     0.064 H 
ENDBRANCH  32  35
ENDBRANCH  29  32
ENDBRANCH   3  29
BRANCH   4  50
ATOM     50  O   UNL     1     -45.108  36.490  29.192  1.00  0.00    -0.390 OA
ATOM     51  H   UNL     1     -45.651  36.224  29.958  1.00  0.00     0.211 HD
ENDBRANCH   4  50
TORSDOF 7
ENDMDL
MODEL 3
REMARK VINA RESULT:      -9.8      2.267      9.612
REMARK SMILES Nc1ncnc2c1ccn2[C@@H]1C[C@H](CCc2ccc3cccnc3n2)[C@@H](O)[C@H]1O
REMARK SMILES IDX 11 1 12 2 13 3 26 4 28 5 10 12 2 13 3 14 7 15 4 16 6 17 8 18
REMARK SMILES IDX 5 19 9 21 1 24 29 27 14 29 15 32 16 35 17 36 25 37 18 38
REMARK SMILES IDX 24 40 19 41 23 43 20 44 22 45 21 46 27 50
REMARK H PARENT 11 6 12 7 12 8 13 9 26 10 28 11 4 20 8 22 9 23 1 25 1 26 29 28
REMARK H PARENT 14 30 14 31 15 33 15 34 17 39 18 42 20 47 22 48 21 49 27 51
REMARK Flexibility Score: inf
ROOT
ATOM      1  C   UNL     1     -48.203  32.410  26.052  1.00  0.00     0.064 C 
ATOM      2  C   UNL     1     -48.865  33.778  26.339  1.00  0.00    -0.024 C 
ATOM      3  C   UNL     1     -47.756  34.627  26.970  1.00  0.00    -0.010 C 
ATOM      4  C   UNL     1     -46.509  34.161  26.222  1.00  0.00     0.085 C 
ATOM      5  C   UNL     1     -46.683  32.634  26.181  1.00  0.00     0.101 C 
ATOM      6  H   UNL     1     -48.529  31.702  26.826  1.00  0.00     0.056 H 
ATOM      7  H   UNL     1     -49.258  34.240  25.429  1.00  0.00     0.029 H 
ATOM      8  H   UNL     1     -49.710  33.666  27.027  1.00  0.00     0.029 H 
ATOM      9  H   UNL     1     -47.657  34.321  28.022  1.00  0.00     0.033 H 
ATOM     10  H   UNL     1     -46.459  34.550  25.205  1.00  0.00     0.063 H 
ATOM     11  H   UNL     1     -46.084  32.176  25.387  1.00  0.00     0.065 H 
ENDROOT
BRANCH   1  12
ATOM     12  N   UNL     1     -48.609  31.832  24.779  1.00  0.00    -0.327 N 
ATOM     13  C   UNL     1     -47.845  30.254  21.705  1.00  0.00     0.136 A 
ATOM     14  N   UNL     1     -46.503  30.148  21.772  1.00  0.00    -0.219 NA
ATOM     15  C   UNL     1     -48.536  30.847  22.771  1.00  0.00     0.061 A 
ATOM     16  C   UNL     1     -45.880  30.612  22.875  1.00  0.00     0.120 A 
ATOM     17  C   UNL     1     -47.770  31.284  23.840  1.00  0.00     0.145 A 
ATOM     18  C   UNL     1     -49.890  31.143  23.090  1.00  0.00    -0.031 A 
ATOM     19  N   UNL     1     -46.437  31.194  23.949  1.00  0.00    -0.218 NA
ATOM     20  H   UNL     1     -44.799  30.507  22.898  1.00  0.00     0.106 H 
ATOM     21  C   UNL     1     -49.906  31.754  24.328  1.00  0.00     0.007 A 
ATOM     22  H   UNL     1     -50.759  30.929  22.482  1.00  0.00     0.065 H 
ATOM     23  H   UNL     1     -50.731  32.124  24.923  1.00  0.00     0.082 H 
BRANCH  13  24
ATOM     24  N   UNL     1     -48.464  29.781  20.555  1.00  0.00    -0.383 N 
ATOM     25  H   UNL     1     -47.875  29.783  19.734  1.00  0.00     0.158 HD
ATOM     26  H   UNL     1     -48.955  28.917  20.755  1.00  0.00     0.158 HD
ENDBRANCH  13  24
ENDBRANCH   1  12
BRANCH   5  27
ATOM     27  O   UNL     1     -46.220  32.077  27.424  1.00  0.00    -0.388 OA
ATOM     28  H   UNL     1     -45.407  32.588  27.628  1.00  0.00     0.211 HD
ENDBRANCH   5  27
BRANCH   3  29
ATOM     29  C   UNL     1     -48.030  36.138  27.010  1.00  0.00    -0.042 C 
ATOM     30  H   UNL     1     -47.500  36.580  26.156  1.00  0.00     0.027 H 
ATOM     31  H   UNL     1     -49.097  36.303  26.813  1.00  0.00     0.027 H 
BRANCH  29  32
ATOM     32  C   UNL     1     -47.603  36.919  28.262  1.00  0.00    -0.010 C 
ATOM     33  H   UNL     1     -47.178  36.209  28.985  1.00  0.00     0.033 H 
ATOM     34  H   UNL     1     -48.472  37.362  28.759  1.00  0.00     0.033 H 
BRANCH  32  35
ATOM     35  C   UNL     1     -46.557  37.980  28.023  1.00  0.00     0.043 A 
ATOM     36  C   UNL     1     -46.540  38.716  26.848  1.00  0.00    -0.040 A 
ATOM     37  N   UNL     1     -45.642  38.161  29.004  1.00  0.00    -0.233 NA
ATOM     38  C   UNL     1     -45.553  39.679  26.688  1.00  0.00    -0.049 A 
ATOM     39  H   UNL     1     -47.274  38.546  26.065  1.00  0.00     0.064 H 
ATOM     40  C   UNL     1     -44.685  39.080  28.865  1.00  0.00     0.159 A 
ATOM     41  C   UNL     1     -44.609  39.873  27.705  1.00  0.00     0.019 A 
ATOM     42  H   UNL     1     -45.520  40.269  25.777  1.00  0.00     0.063 H 
ATOM     43  N   UNL     1     -43.809  39.229  29.860  1.00  0.00    -0.237 NA
ATOM     44  C   UNL     1     -43.592  40.831  27.600  1.00  0.00    -0.050 A 
ATOM     45  C   UNL     1     -42.837  40.161  29.741  1.00  0.00     0.029 A 
ATOM     46  C   UNL     1     -42.688  40.980  28.640  1.00  0.00    -0.043 A 
ATOM     47  H   UNL     1     -43.505  41.460  26.717  1.00  0.00     0.063 H 
ATOM     48  H   UNL     1     -42.161  40.230  30.588  1.00  0.00     0.084 H 
ATOM     49  H   UNL     1     -41.888  41.712  28.595  1.00  0.00     0.064 H 
ENDBRANCH  32  35
ENDBRANCH  29  32
ENDBRANCH   3  29
BRANCH   4  50
ATOM     50  O   UNL     1     -45.319  34.512  26.921  1.00  0.00    -0.390 OA
ATOM     51  H   UNL     1     -45.103  35.422  26.646  1.00  0.00     0.211 HD
ENDBRANCH   4  50
TORSDOF 7
ENDMDL
MODEL 4
REMARK VINA RESULT:      -9.7      2.215      9.747
REMARK SMILES Nc1ncnc2c1ccn2[C@@H]1C[C@H](CCc2ccc3cccnc3n2)[C@@H](O)[C@H]1O
REMARK SMILES IDX 11 1 12 2 13 3 26 4 28 5 10 12 2 13 3 14 7 15 4 16 6 17 8 18
REMARK SMILES IDX 5 19 9 21 1 24 29 27 14 29 15 32 16 35 17 36 25 37 18 38
REMARK SMILES IDX 24 40 19 41 23 43 20 44 22 45 21 46 27 50
REMARK H PARENT 11 6 12 7 12 8 13 9 26 10 28 11 4 20 8 22 9 23 1 25 1 26 29 28
REMARK H PARENT 14 30 14 31 15 33 15 34 17 39 18 42 20 47 22 48 21 49 27 51
REMARK Flexibility Score: inf
ROOT
ATOM      1  C   UNL     1     -47.493  32.436  26.105  1.00  0.00     0.064 C 
ATOM      2  C   UNL     1     -48.219  33.801  26.083  1.00  0.00    -0.024 C 
ATOM      3  C   UNL     1     -47.421  34.688  27.044  1.00  0.00    -0.010 C 
ATOM      4  C   UNL     1     -45.985  34.220  26.818  1.00  0.00     0.085 C 
ATOM      5  C   UNL     1     -46.125  32.690  26.771  1.00  0.00     0.101 C 
ATOM      6  H   UNL     1     -48.076  31.748  26.732  1.00  0.00     0.056 H 
ATOM      7  H   UNL     1     -48.256  34.227  25.076  1.00  0.00     0.029 H 
ATOM      8  H   UNL     1     -49.257  33.696  26.418  1.00  0.00     0.029 H 
ATOM      9  H   UNL     1     -47.712  34.418  28.069  1.00  0.00     0.033 H 
ATOM     10  H   UNL     1     -45.569  34.577  25.877  1.00  0.00     0.063 H 
ATOM     11  H   UNL     1     -45.276  32.217  26.268  1.00  0.00     0.065 H 
ENDROOT
BRANCH   1  12
ATOM     12  N   UNL     1     -47.403  31.812  24.793  1.00  0.00    -0.327 N 
ATOM     13  C   UNL     1     -48.855  30.043  22.094  1.00  0.00     0.136 A 
ATOM     14  N   UNL     1     -50.123  29.877  22.520  1.00  0.00    -0.219 NA
ATOM     15  C   UNL     1     -47.943  30.720  22.916  1.00  0.00     0.061 A 
ATOM     16  C   UNL     1     -50.464  30.381  23.723  1.00  0.00     0.120 A 
ATOM     17  C   UNL     1     -48.427  31.182  24.130  1.00  0.00     0.145 A 
ATOM     18  C   UNL     1     -46.573  31.095  22.852  1.00  0.00    -0.031 A 
ATOM     19  N   UNL     1     -49.679  31.043  24.588  1.00  0.00    -0.218 NA
ATOM     20  H   UNL     1     -51.495  30.233  24.033  1.00  0.00     0.106 H 
ATOM     21  C   UNL     1     -46.265  31.761  24.022  1.00  0.00     0.007 A 
ATOM     22  H   UNL     1     -45.887  30.903  22.038  1.00  0.00     0.065 H 
ATOM     23  H   UNL     1     -45.339  32.208  24.358  1.00  0.00     0.082 H 
BRANCH  13  24
ATOM     24  N   UNL     1     -48.524  29.505  20.857  1.00  0.00    -0.383 N 
ATOM     25  H   UNL     1     -49.293  29.060  20.376  1.00  0.00     0.158 HD
ATOM     26  H   UNL     1     -47.983  30.173  20.320  1.00  0.00     0.158 HD
ENDBRANCH  13  24
ENDBRANCH   1  12
BRANCH   5  27
ATOM     27  O   UNL     1     -46.146  32.180  28.117  1.00  0.00    -0.388 OA
ATOM     28  H   UNL     1     -45.883  31.240  28.021  1.00  0.00     0.211 HD
ENDBRANCH   5  27
BRANCH   3  29
ATOM     29  C   UNL     1     -47.698  36.195  26.926  1.00  0.00    -0.042 C 
ATOM     30  H   UNL     1     -46.854  36.630  26.374  1.00  0.00     0.027 H 
ATOM     31  H   UNL     1     -48.577  36.338  26.286  1.00  0.00     0.027 H 
BRANCH  29  32
ATOM     32  C   UNL     1     -47.857  37.004  28.222  1.00  0.00    -0.010 C 
ATOM     33  H   UNL     1     -48.212  36.328  29.012  1.00  0.00     0.033 H 
ATOM     34  H   UNL     1     -48.637  37.764  28.112  1.00  0.00     0.033 H 
BRANCH  32  35
ATOM     35  C   UNL     1     -46.590  37.646  28.731  1.00  0.00     0.043 A 
ATOM     36  C   UNL     1     -45.955  37.173  29.870  1.00  0.00    -0.040 A 
ATOM     37  N   UNL     1     -46.121  38.703  28.027  1.00  0.00    -0.233 NA
ATOM     38  C   UNL     1     -44.792  37.806  30.285  1.00  0.00    -0.049 A 
ATOM     39  H   UNL     1     -46.355  36.334  30.430  1.00  0.00     0.064 H 
ATOM     40  C   UNL     1     -45.006  39.324  28.415  1.00  0.00     0.159 A 
ATOM     41  C   UNL     1     -44.301  38.895  29.554  1.00  0.00     0.019 A 
ATOM     42  H   UNL     1     -44.276  37.453  31.174  1.00  0.00     0.063 H 
ATOM     43  N   UNL     1     -44.576  40.356  27.686  1.00  0.00    -0.237 NA
ATOM     44  C   UNL     1     -43.130  39.571  29.925  1.00  0.00    -0.050 A 
ATOM     45  C   UNL     1     -43.444  40.992  28.059  1.00  0.00     0.029 A 
ATOM     46  C   UNL     1     -42.691  40.641  29.162  1.00  0.00    -0.043 A 
ATOM     47  H   UNL     1     -42.562  39.266  30.801  1.00  0.00     0.063 H 
ATOM     48  H   UNL     1     -43.151  41.821  27.421  1.00  0.00     0.084 H 
ATOM     49  H   UNL     1     -41.789  41.187  29.417  1.00  0.00     0.064 H 
ENDBRANCH  32  35
ENDBRANCH  29  32
ENDBRANCH   3  29
BRANCH   4  50
ATOM     50  O   UNL     1     -45.134  34.613  27.891  1.00  0.00    -0.390 OA
ATOM     51  H   UNL     1     -45.719  34.769  28.655  1.00  0.00     0.211 HD
ENDBRANCH   4  50
TORSDOF 7
ENDMDL
MODEL 5
REMARK VINA RESULT:      -9.7      3.410      5.952
REMARK SMILES Nc1ncnc2c1ccn2[C@@H]1C[C@H](CCc2ccc3cccnc3n2)[C@@H](O)[C@H]1O
REMARK SMILES IDX 11 1 12 2 13 3 26 4 28 5 10 12 2 13 3 14 7 15 4 16 6 17 8 18
REMARK SMILES IDX 5 19 9 21 1 24 29 27 14 29 15 32 16 35 17 36 25 37 18 38
REMARK SMILES IDX 24 40 19 41 23 43 20 44 22 45 21 46 27 50
REMARK H PARENT 11 6 12 7 12 8 13 9 26 10 28 11 4 20 8 22 9 23 1 25 1 26 29 28
REMARK H PARENT 14 30 14 31 15 33 15 34 17 39 18 42 20 47 22 48 21 49 27 51
REMARK Flexibility Score: inf
ROOT
ATOM      1  C   UNL     1     -46.691  34.060  26.658  1.00  0.00     0.064 C 
ATOM      2  C   UNL     1     -47.085  33.724  25.200  1.00  0.00    -0.024 C 
ATOM      3  C   UNL     1     -47.349  32.215  25.201  1.00  0.00    -0.010 C 
ATOM      4  C   UNL     1     -47.974  31.984  26.574  1.00  0.00     0.085 C 
ATOM      5  C   UNL     1     -47.091  32.833  27.502  1.00  0.00     0.101 C 
ATOM      6  H   UNL     1     -45.601  34.184  26.698  1.00  0.00     0.056 H 
ATOM      7  H   UNL     1     -47.965  34.287  24.876  1.00  0.00     0.029 H 
ATOM      8  H   UNL     1     -46.275  33.980  24.508  1.00  0.00     0.029 H 
ATOM      9  H   UNL     1     -46.374  31.705  25.179  1.00  0.00     0.033 H 
ATOM     10  H   UNL     1     -49.005  32.332  26.631  1.00  0.00     0.063 H 
ATOM     11  H   UNL     1     -47.598  33.071  28.443  1.00  0.00     0.065 H 
ENDROOT
BRANCH   1  12
ATOM     12  N   UNL     1     -47.258  35.314  27.132  1.00  0.00    -0.327 N 
ATOM     13  C   UNL     1     -46.924  38.490  28.655  1.00  0.00     0.136 A 
ATOM     14  N   UNL     1     -45.602  38.535  28.918  1.00  0.00    -0.219 NA
ATOM     15  C   UNL     1     -47.456  37.351  28.034  1.00  0.00     0.061 A 
ATOM     16  C   UNL     1     -44.844  37.478  28.562  1.00  0.00     0.120 A 
ATOM     17  C   UNL     1     -46.563  36.337  27.727  1.00  0.00     0.145 A 
ATOM     18  C   UNL     1     -48.738  36.914  27.599  1.00  0.00    -0.031 A 
ATOM     19  N   UNL     1     -45.245  36.344  27.966  1.00  0.00    -0.218 NA
ATOM     20  H   UNL     1     -43.783  37.550  28.784  1.00  0.00     0.106 H 
ATOM     21  C   UNL     1     -48.589  35.655  27.052  1.00  0.00     0.007 A 
ATOM     22  H   UNL     1     -49.668  37.462  27.674  1.00  0.00     0.065 H 
ATOM     23  H   UNL     1     -49.314  34.987  26.607  1.00  0.00     0.082 H 
BRANCH  13  24
ATOM     24  N   UNL     1     -47.686  39.584  29.042  1.00  0.00    -0.383 N 
ATOM     25  H   UNL     1     -47.692  39.758  30.038  1.00  0.00     0.158 HD
ATOM     26  H   UNL     1     -47.482  40.379  28.447  1.00  0.00     0.158 HD
ENDBRANCH  13  24
ENDBRANCH   1  12
BRANCH   5  27
ATOM     27  O   UNL     1     -45.913  32.082  27.845  1.00  0.00    -0.388 OA
ATOM     28  H   UNL     1     -45.778  32.268  28.798  1.00  0.00     0.211 HD
ENDBRANCH   5  27
BRANCH   3  29
ATOM     29  C   UNL     1     -48.113  31.683  23.979  1.00  0.00    -0.042 C 
ATOM     30  H   UNL     1     -49.034  31.219  24.358  1.00  0.00     0.027 H 
ATOM     31  H   UNL     1     -48.440  32.538  23.374  1.00  0.00     0.027 H 
BRANCH  29  32
ATOM     32  C   UNL     1     -47.418  30.645  23.085  1.00  0.00    -0.010 C 
ATOM     33  H   UNL     1     -46.412  31.015  22.843  1.00  0.00     0.033 H 
ATOM     34  H   UNL     1     -47.936  30.550  22.126  1.00  0.00     0.033 H 
BRANCH  32  35
ATOM     35  C   UNL     1     -47.246  29.282  23.709  1.00  0.00     0.043 A 
ATOM     36  C   UNL     1     -46.139  28.498  23.421  1.00  0.00    -0.040 A 
ATOM     37  N   UNL     1     -48.228  28.871  24.546  1.00  0.00    -0.233 NA
ATOM     38  C   UNL     1     -46.039  27.254  24.029  1.00  0.00    -0.049 A 
ATOM     39  H   UNL     1     -45.370  28.839  22.735  1.00  0.00     0.064 H 
ATOM     40  C   UNL     1     -48.148  27.677  25.135  1.00  0.00     0.159 A 
ATOM     41  C   UNL     1     -47.050  26.829  24.900  1.00  0.00     0.019 A 
ATOM     42  H   UNL     1     -45.180  26.621  23.820  1.00  0.00     0.063 H 
ATOM     43  N   UNL     1     -49.134  27.315  25.958  1.00  0.00    -0.237 NA
ATOM     44  C   UNL     1     -47.000  25.584  25.544  1.00  0.00    -0.050 A 
ATOM     45  C   UNL     1     -49.066  26.113  26.571  1.00  0.00     0.029 A 
ATOM     46  C   UNL     1     -48.029  25.219  26.398  1.00  0.00    -0.043 A 
ATOM     47  H   UNL     1     -46.167  24.905  25.383  1.00  0.00     0.063 H 
ATOM     48  H   UNL     1     -49.900  25.884  27.227  1.00  0.00     0.084 H 
ATOM     49  H   UNL     1     -48.024  24.265  26.914  1.00  0.00     0.064 H 
ENDBRANCH  32  35
ENDBRANCH  29  32
ENDBRANCH   3  29
BRANCH   4  50
ATOM     50  O   UNL     1     -47.919  30.610  26.948  1.00  0.00    -0.390 OA
ATOM     51  H   UNL     1     -48.361  30.550  27.815  1.00  0.00     0.211 HD
ENDBRANCH   4  50
TORSDOF 7
ENDMDL
MODEL 6
REMARK VINA RESULT:      -9.5      1.689      8.721
REMARK SMILES Nc1ncnc2c1ccn2[C@@H]1C[C@H](CCc2ccc3cccnc3n2)[C@@H](O)[C@H]1O
REMARK SMILES IDX 11 1 12 2 13 3 26 4 28 5 10 12 2 13 3 14 7 15 4 16 6 17 8 18
REMARK SMILES IDX 5 19 9 21 1 24 29 27 14 29 15 32 16 35 17 36 25 37 18 38
REMARK SMILES IDX 24 40 19 41 23 43 20 44 22 45 21 46 27 50
REMARK H PARENT 11 6 12 7 12 8 13 9 26 10 28 11 4 20 8 22 9 23 1 25 1 26 29 28
REMARK H PARENT 14 30 14 31 15 33 15 34 17 39 18 42 20 47 22 48 21 49 27 51
REMARK Flexibility Score: inf
ROOT
ATOM      1  C   UNL     1     -46.532  36.578  26.842  1.00  0.00     0.064 C 
ATOM      2  C   UNL     1     -45.667  36.406  28.112  1.00  0.00    -0.024 C 
ATOM      3  C   UNL     1     -45.569  37.812  28.714  1.00  0.00    -0.010 C 
ATOM      4  C   UNL     1     -46.942  38.404  28.410  1.00  0.00     0.085 C 
ATOM      5  C   UNL     1     -47.192  37.967  26.957  1.00  0.00     0.101 C 
ATOM      6  H   UNL     1     -45.865  36.568  25.969  1.00  0.00     0.056 H 
ATOM      7  H   UNL     1     -46.111  35.696  28.815  1.00  0.00     0.029 H 
ATOM      8  H   UNL     1     -44.674  36.019  27.858  1.00  0.00     0.029 H 
ATOM      9  H   UNL     1     -44.818  38.372  28.137  1.00  0.00     0.033 H 
ATOM     10  H   UNL     1     -47.725  38.003  29.051  1.00  0.00     0.063 H 
ATOM     11  H   UNL     1     -48.255  37.991  26.701  1.00  0.00     0.065 H 
ENDROOT
BRANCH   1  12
ATOM     12  N   UNL     1     -47.478  35.490  26.640  1.00  0.00    -0.327 N 
ATOM     13  C   UNL     1     -48.287  32.267  25.423  1.00  0.00     0.136 A 
ATOM     14  N   UNL     1     -47.118  31.875  24.877  1.00  0.00    -0.219 NA
ATOM     15  C   UNL     1     -48.367  33.532  26.024  1.00  0.00     0.061 A 
ATOM     16  C   UNL     1     -46.068  32.718  24.942  1.00  0.00     0.120 A 
ATOM     17  C   UNL     1     -47.212  34.297  26.015  1.00  0.00     0.145 A 
ATOM     18  C   UNL     1     -49.364  34.301  26.686  1.00  0.00    -0.031 A 
ATOM     19  N   UNL     1     -46.031  33.943  25.490  1.00  0.00    -0.218 NA
ATOM     20  H   UNL     1     -45.141  32.367  24.498  1.00  0.00     0.106 H 
ATOM     21  C   UNL     1     -48.791  35.504  27.051  1.00  0.00     0.007 A 
ATOM     22  H   UNL     1     -50.386  34.006  26.879  1.00  0.00     0.065 H 
ATOM     23  H   UNL     1     -49.207  36.355  27.574  1.00  0.00     0.082 H 
BRANCH  13  24
ATOM     24  N   UNL     1     -49.358  31.388  25.333  1.00  0.00    -0.383 N 
ATOM     25  H   UNL     1     -50.155  31.642  25.900  1.00  0.00     0.158 HD
ATOM     26  H   UNL     1     -49.548  31.169  24.362  1.00  0.00     0.158 HD
ENDBRANCH  13  24
ENDBRANCH   1  12
BRANCH   5  27
ATOM     27  O   UNL     1     -46.530  38.887  26.071  1.00  0.00    -0.388 OA
ATOM     28  H   UNL     1     -45.801  38.360  25.679  1.00  0.00     0.211 HD
ENDBRANCH   5  27
BRANCH   3  29
ATOM     29  C   UNL     1     -45.084  37.867  30.171  1.00  0.00    -0.042 C 
ATOM     30  H   UNL     1     -45.804  38.488  30.722  1.00  0.00     0.027 H 
ATOM     31  H   UNL     1     -45.168  36.862  30.604  1.00  0.00     0.027 H 
BRANCH  29  32
ATOM     32  C   UNL     1     -43.686  38.441  30.448  1.00  0.00    -0.010 C 
ATOM     33  H   UNL     1     -42.945  37.652  30.265  1.00  0.00     0.033 H 
ATOM     34  H   UNL     1     -43.578  38.709  31.504  1.00  0.00     0.033 H 
BRANCH  32  35
ATOM     35  C   UNL     1     -43.299  39.616  29.583  1.00  0.00     0.043 A 
ATOM     36  C   UNL     1     -42.218  40.420  29.911  1.00  0.00    -0.040 A 
ATOM     37  N   UNL     1     -44.065  39.842  28.490  1.00  0.00    -0.233 NA
ATOM     38  C   UNL     1     -41.912  41.485  29.074  1.00  0.00    -0.049 A 
ATOM     39  H   UNL     1     -41.625  40.232  30.801  1.00  0.00     0.064 H 
ATOM     40  C   UNL     1     -43.786  40.862  27.678  1.00  0.00     0.159 A 
ATOM     41  C   UNL     1     -42.699  41.717  27.939  1.00  0.00     0.019 A 
ATOM     42  H   UNL     1     -41.069  42.129  29.309  1.00  0.00     0.063 H 
ATOM     43  N   UNL     1     -44.563  41.043  26.607  1.00  0.00    -0.237 NA
ATOM     44  C   UNL     1     -42.436  42.774  27.057  1.00  0.00    -0.050 A 
ATOM     45  C   UNL     1     -44.291  42.067  25.768  1.00  0.00     0.029 A 
ATOM     46  C   UNL     1     -43.248  42.952  25.948  1.00  0.00    -0.043 A 
ATOM     47  H   UNL     1     -41.605  43.453  27.230  1.00  0.00     0.063 H 
ATOM     48  H   UNL     1     -44.961  42.154  24.918  1.00  0.00     0.084 H 
ATOM     49  H   UNL     1     -43.074  43.759  25.243  1.00  0.00     0.064 H 
ENDBRANCH  32  35
ENDBRANCH  29  32
ENDBRANCH   3  29
BRANCH   4  50
ATOM     50  O   UNL     1     -46.931  39.826  28.510  1.00  0.00    -0.390 OA
ATOM     51  H   UNL     1     -46.282  40.137  27.852  1.00  0.00     0.211 HD
ENDBRANCH   4  50
TORSDOF 7
ENDMDL
MODEL 7
REMARK VINA RESULT:      -9.5      5.060     11.172
REMARK SMILES Nc1ncnc2c1ccn2[C@@H]1C[C@H](CCc2ccc3cccnc3n2)[C@@H](O)[C@H]1O
REMARK SMILES IDX 11 1 12 2 13 3 26 4 28 5 10 12 2 13 3 14 7 15 4 16 6 17 8 18
REMARK SMILES IDX 5 19 9 21 1 24 29 27 14 29 15 32 16 35 17 36 25 37 18 38
REMARK SMILES IDX 24 40 19 41 23 43 20 44 22 45 21 46 27 50
REMARK H PARENT 11 6 12 7 12 8 13 9 26 10 28 11 4 20 8 22 9 23 1 25 1 26 29 28
REMARK H PARENT 14 30 14 31 15 33 15 34 17 39 18 42 20 47 22 48 21 49 27 51
REMARK Flexibility Score: inf
ROOT
ATOM      1  C   UNL     1     -47.228  29.234  23.310  1.00  0.00     0.064 C 
ATOM      2  C   UNL     1     -47.636  30.363  24.285  1.00  0.00    -0.024 C 
ATOM      3  C   UNL     1     -48.790  31.090  23.586  1.00  0.00    -0.010 C 
ATOM      4  C   UNL     1     -49.521  29.953  22.876  1.00  0.00     0.085 C 
ATOM      5  C   UNL     1     -48.373  29.122  22.283  1.00  0.00     0.101 C 
ATOM      6  H   UNL     1     -46.310  29.542  22.793  1.00  0.00     0.056 H 
ATOM      7  H   UNL     1     -47.938  29.970  25.260  1.00  0.00     0.029 H 
ATOM      8  H   UNL     1     -46.797  31.044  24.466  1.00  0.00     0.029 H 
ATOM      9  H   UNL     1     -48.355  31.748  22.819  1.00  0.00     0.033 H 
ATOM     10  H   UNL     1     -50.103  29.336  23.560  1.00  0.00     0.063 H 
ATOM     11  H   UNL     1     -48.685  28.098  22.055  1.00  0.00     0.065 H 
ENDROOT
BRANCH   1  12
ATOM     12  N   UNL     1     -46.913  27.981  23.982  1.00  0.00    -0.327 N 
ATOM     13  C   UNL     1     -47.715  25.397  26.263  1.00  0.00     0.136 A 
ATOM     14  N   UNL     1     -48.914  25.800  26.728  1.00  0.00    -0.219 NA
ATOM     15  C   UNL     1     -47.055  26.187  25.310  1.00  0.00     0.061 A 
ATOM     16  C   UNL     1     -49.434  26.947  26.247  1.00  0.00     0.120 A 
ATOM     17  C   UNL     1     -47.702  27.344  24.907  1.00  0.00     0.145 A 
ATOM     18  C   UNL     1     -45.829  26.131  24.590  1.00  0.00    -0.031 A 
ATOM     19  N   UNL     1     -48.894  27.776  25.340  1.00  0.00    -0.218 NA
ATOM     20  H   UNL     1     -50.404  27.239  26.640  1.00  0.00     0.106 H 
ATOM     21  C   UNL     1     -45.765  27.250  23.784  1.00  0.00     0.007 A 
ATOM     22  H   UNL     1     -45.078  25.355  24.652  1.00  0.00     0.065 H 
ATOM     23  H   UNL     1     -45.006  27.574  23.084  1.00  0.00     0.082 H 
BRANCH  13  24
ATOM     24  N   UNL     1     -47.194  24.220  26.782  1.00  0.00    -0.383 N 
ATOM     25  H   UNL     1     -47.841  23.691  27.349  1.00  0.00     0.158 HD
ATOM     26  H   UNL     1     -46.707  23.706  26.057  1.00  0.00     0.158 HD
ENDBRANCH  13  24
ENDBRANCH   1  12
BRANCH   5  27
ATOM     27  O   UNL     1     -47.960  29.715  21.038  1.00  0.00    -0.388 OA
ATOM     28  H   UNL     1     -48.035  30.680  21.196  1.00  0.00     0.211 HD
ENDBRANCH   5  27
BRANCH   3  29
ATOM     29  C   UNL     1     -49.625  32.011  24.487  1.00  0.00    -0.042 C 
ATOM     30  H   UNL     1     -49.654  32.994  23.998  1.00  0.00     0.027 H 
ATOM     31  H   UNL     1     -50.661  31.651  24.489  1.00  0.00     0.027 H 
BRANCH  29  32
ATOM     32  C   UNL     1     -49.149  32.238  25.931  1.00  0.00    -0.010 C 
ATOM     33  H   UNL     1     -48.441  31.440  26.191  1.00  0.00     0.033 H 
ATOM     34  H   UNL     1     -49.981  32.137  26.635  1.00  0.00     0.033 H 
BRANCH  32  35
ATOM     35  C   UNL     1     -48.439  33.548  26.167  1.00  0.00     0.043 A 
ATOM     36  C   UNL     1     -47.170  33.777  25.655  1.00  0.00    -0.040 A 
ATOM     37  N   UNL     1     -49.098  34.470  26.907  1.00  0.00    -0.233 NA
ATOM     38  C   UNL     1     -46.571  35.004  25.906  1.00  0.00    -0.049 A 
ATOM     39  H   UNL     1     -46.651  33.020  25.076  1.00  0.00     0.064 H 
ATOM     40  C   UNL     1     -48.535  35.652  27.160  1.00  0.00     0.159 A 
ATOM     41  C   UNL     1     -47.255  35.962  26.666  1.00  0.00     0.019 A 
ATOM     42  H   UNL     1     -45.578  35.208  25.515  1.00  0.00     0.063 H 
ATOM     43  N   UNL     1     -49.225  36.534  27.887  1.00  0.00    -0.237 NA
ATOM     44  C   UNL     1     -46.700  37.218  26.949  1.00  0.00    -0.050 A 
ATOM     45  C   UNL     1     -48.673  37.740  28.147  1.00  0.00     0.029 A 
ATOM     46  C   UNL     1     -47.425  38.127  27.704  1.00  0.00    -0.043 A 
ATOM     47  H   UNL     1     -45.713  37.488  26.583  1.00  0.00     0.063 H 
ATOM     48  H   UNL     1     -49.289  38.408  28.742  1.00  0.00     0.084 H 
ATOM     49  H   UNL     1     -47.029  39.108  27.942  1.00  0.00     0.064 H 
ENDBRANCH  32  35
ENDBRANCH  29  32
ENDBRANCH   3  29
BRANCH   4  50
ATOM     50  O   UNL     1     -50.371  30.444  21.843  1.00  0.00    -0.390 OA
ATOM     51  H   UNL     1     -50.905  29.683  21.550  1.00  0.00     0.211 HD
ENDBRANCH   4  50
TORSDOF 7
ENDMDL
