MODEL 1
REMARK VINA RESULT:     -10.5      0.000      0.000
REMARK SMILES CNc1ccc2ccc(CCc3cncc(-n4cc(Cl)c5c(N)ncnc54)c3)cc2n1
REMARK SMILES IDX 10 1 9 4 3 5 4 6 31 7 5 8 30 10 6 11 29 13 7 14 8 16 2 19
REMARK SMILES IDX 1 21 11 25 12 28 13 29 28 30 14 31 16 33 15 35 17 37 18 38
REMARK SMILES IDX 27 39 19 40 21 42 26 43 20 44 22 45 25 46 24 47 23 49
REMARK H PARENT 10 2 10 3 4 9 5 12 29 15 7 17 8 18 2 20 1 22 1 23 1 24 11 26
REMARK H PARENT 11 27 13 32 28 34 15 36 18 41 25 48 23 50 23 51
REMARK Flexibility Score: inf
ROOT
ATOM      1  C   UNL     1     -46.799  37.418  28.032  1.00  0.00    -0.024 C 
ATOM      2  H   UNL     1     -47.600  38.161  27.933  1.00  0.00     0.032 H 
ATOM      3  H   UNL     1     -47.116  36.736  28.833  1.00  0.00     0.032 H 
ENDROOT
BRANCH   1   4
ATOM      4  C   UNL     1     -45.525  38.125  28.442  1.00  0.00    -0.046 A 
ATOM      5  C   UNL     1     -42.653  41.860  27.727  1.00  0.00     0.126 A 
ATOM      6  C   UNL     1     -42.056  41.696  28.971  1.00  0.00    -0.019 A 
ATOM      7  N   UNL     1     -43.598  41.009  27.280  1.00  0.00    -0.231 NA
ATOM      8  C   UNL     1     -42.429  40.623  29.775  1.00  0.00    -0.049 A 
ATOM      9  H   UNL     1     -41.325  42.414  29.329  1.00  0.00     0.066 H 
ATOM     10  C   UNL     1     -43.976  39.980  28.060  1.00  0.00     0.073 A 
ATOM     11  C   UNL     1     -43.418  39.743  29.329  1.00  0.00     0.000 A 
ATOM     12  H   UNL     1     -41.973  40.506  30.752  1.00  0.00     0.063 H 
ATOM     13  C   UNL     1     -44.994  39.141  27.628  1.00  0.00    -0.032 A 
ATOM     14  C   UNL     1     -43.880  38.678  30.123  1.00  0.00    -0.053 A 
ATOM     15  H   UNL     1     -45.447  39.350  26.660  1.00  0.00     0.065 H 
ATOM     16  C   UNL     1     -44.938  37.880  29.686  1.00  0.00    -0.058 A 
ATOM     17  H   UNL     1     -43.447  38.493  31.102  1.00  0.00     0.063 H 
ATOM     18  H   UNL     1     -45.325  37.100  30.338  1.00  0.00     0.063 H 
BRANCH   5  19
ATOM     19  N   UNL     1     -42.291  42.986  26.966  1.00  0.00    -0.373 N 
ATOM     20  H   UNL     1     -41.278  43.040  26.917  1.00  0.00     0.161 HD
BRANCH  19  21
ATOM     21  C   UNL     1     -42.906  43.043  25.651  1.00  0.00     0.005 C 
ATOM     22  H   UNL     1     -43.999  42.991  25.715  1.00  0.00     0.045 H 
ATOM     23  H   UNL     1     -42.535  42.245  24.997  1.00  0.00     0.045 H 
ATOM     24  H   UNL     1     -42.654  43.999  25.182  1.00  0.00     0.045 H 
ENDBRANCH  19  21
ENDBRANCH   5  19
ENDBRANCH   1   4
BRANCH   1  25
ATOM     25  C   UNL     1     -46.659  36.644  26.700  1.00  0.00    -0.022 C 
ATOM     26  H   UNL     1     -45.698  36.876  26.224  1.00  0.00     0.032 H 
ATOM     27  H   UNL     1     -47.431  36.994  26.003  1.00  0.00     0.032 H 
BRANCH  25  28
ATOM     28  C   UNL     1     -46.783  35.149  26.864  1.00  0.00    -0.027 A 
ATOM     29  C   UNL     1     -46.050  34.457  27.816  1.00  0.00     0.030 A 
ATOM     30  C   UNL     1     -47.553  34.396  25.967  1.00  0.00    -0.032 A 
ATOM     31  N   UNL     1     -46.019  33.110  27.904  1.00  0.00    -0.262 NA
ATOM     32  H   UNL     1     -45.430  34.974  28.543  1.00  0.00     0.084 H 
ATOM     33  C   UNL     1     -47.480  33.002  25.964  1.00  0.00     0.066 A 
ATOM     34  H   UNL     1     -48.110  34.934  25.207  1.00  0.00     0.065 H 
ATOM     35  C   UNL     1     -46.713  32.417  26.966  1.00  0.00     0.051 A 
ATOM     36  H   UNL     1     -46.609  31.343  27.079  1.00  0.00     0.086 H 
BRANCH  33  37
ATOM     37  N   UNL     1     -48.068  32.220  24.920  1.00  0.00    -0.298 N 
ATOM     38  C   UNL     1     -49.408  31.870  24.850  1.00  0.00     0.031 A 
ATOM     39  C   UNL     1     -47.429  31.622  23.830  1.00  0.00     0.151 A 
ATOM     40  C   UNL     1     -49.586  30.984  23.816  1.00  0.00     0.072 A 
ATOM     41  H   UNL     1     -50.129  32.216  25.575  1.00  0.00     0.084 H 
ATOM     42  C   UNL     1     -48.347  30.816  23.160  1.00  0.00     0.080 A 
ATOM     43  N   UNL     1     -46.142  31.789  23.460  1.00  0.00    -0.218 NA
ATOM     44  Cl  UNL     1     -51.058  30.242  23.393  1.00  0.00    -0.082 Cl
ATOM     45  C   UNL     1     -47.873  30.085  22.060  1.00  0.00     0.137 A 
ATOM     46  C   UNL     1     -45.808  31.054  22.393  1.00  0.00     0.120 A 
ATOM     47  N   UNL     1     -46.588  30.225  21.683  1.00  0.00    -0.219 NA
ATOM     48  H   UNL     1     -44.779  31.140  22.058  1.00  0.00     0.106 H 
BRANCH  45  49
ATOM     49  N   UNL     1     -48.652  29.226  21.301  1.00  0.00    -0.383 N 
ATOM     50  H   UNL     1     -49.587  29.551  21.088  1.00  0.00     0.158 HD
ATOM     51  H   UNL     1     -48.124  28.789  20.557  1.00  0.00     0.158 HD
ENDBRANCH  45  49
ENDBRANCH  33  37
ENDBRANCH  25  28
ENDBRANCH   1  25
TORSDOF 7
ENDMDL
MODEL 2
REMARK VINA RESULT:     -10.0      3.154     10.397
REMARK SMILES CNc1ccc2ccc(CCc3cncc(-n4cc(Cl)c5c(N)ncnc54)c3)cc2n1
REMARK SMILES IDX 10 1 9 4 3 5 4 6 31 7 5 8 30 10 6 11 29 13 7 14 8 16 2 19
REMARK SMILES IDX 1 21 11 25 12 28 13 29 28 30 14 31 16 33 15 35 17 37 18 38
REMARK SMILES IDX 27 39 19 40 21 42 26 43 20 44 22 45 25 46 24 47 23 49
REMARK H PARENT 10 2 10 3 4 9 5 12 29 15 7 17 8 18 2 20 1 22 1 23 1 24 11 26
REMARK H PARENT 11 27 13 32 28 34 15 36 18 41 25 48 23 50 23 51
REMARK Flexibility Score: inf
ROOT
ATOM      1  C   UNL     1     -46.183  35.748  26.998  1.00  0.00    -0.024 C 
ATOM      2  H   UNL     1     -45.979  36.534  26.260  1.00  0.00     0.032 H 
ATOM      3  H   UNL     1     -45.205  35.337  27.281  1.00  0.00     0.032 H 
ENDROOT
BRANCH   1   4
ATOM      4  C   UNL     1     -47.015  34.668  26.341  1.00  0.00    -0.046 A 
ATOM      5  C   UNL     1     -47.002  30.499  24.030  1.00  0.00     0.126 A 
ATOM      6  C   UNL     1     -48.338  30.273  24.338  1.00  0.00    -0.019 A 
ATOM      7  N   UNL     1     -46.376  31.636  24.397  1.00  0.00    -0.231 NA
ATOM      8  C   UNL     1     -49.056  31.244  25.030  1.00  0.00    -0.049 A 
ATOM      9  H   UNL     1     -48.814  29.336  24.069  1.00  0.00     0.066 H 
ATOM     10  C   UNL     1     -47.060  32.570  25.081  1.00  0.00     0.073 A 
ATOM     11  C   UNL     1     -48.414  32.419  25.429  1.00  0.00     0.000 A 
ATOM     12  H   UNL     1     -50.095  31.059  25.284  1.00  0.00     0.063 H 
ATOM     13  C   UNL     1     -46.399  33.711  25.515  1.00  0.00    -0.032 A 
ATOM     14  C   UNL     1     -49.070  33.407  26.184  1.00  0.00    -0.053 A 
ATOM     15  H   UNL     1     -45.341  33.807  25.274  1.00  0.00     0.065 H 
ATOM     16  C   UNL     1     -48.370  34.521  26.648  1.00  0.00    -0.058 A 
ATOM     17  H   UNL     1     -50.118  33.292  26.450  1.00  0.00     0.063 H 
ATOM     18  H   UNL     1     -48.876  35.244  27.283  1.00  0.00     0.063 H 
BRANCH   5  19
ATOM     19  N   UNL     1     -46.294  29.474  23.379  1.00  0.00    -0.373 N 
ATOM     20  H   UNL     1     -46.938  28.725  23.145  1.00  0.00     0.161 HD
BRANCH  19  21
ATOM     21  C   UNL     1     -45.526  29.915  22.226  1.00  0.00     0.005 C 
ATOM     22  H   UNL     1     -46.035  29.672  21.287  1.00  0.00     0.045 H 
ATOM     23  H   UNL     1     -44.518  29.485  22.224  1.00  0.00     0.045 H 
ATOM     24  H   UNL     1     -45.421  31.004  22.265  1.00  0.00     0.045 H 
ENDBRANCH  19  21
ENDBRANCH   5  19
ENDBRANCH   1   4
BRANCH   1  25
ATOM     25  C   UNL     1     -46.872  36.378  28.230  1.00  0.00    -0.022 C 
ATOM     26  H   UNL     1     -46.270  36.209  29.132  1.00  0.00     0.032 H 
ATOM     27  H   UNL     1     -47.826  35.864  28.406  1.00  0.00     0.032 H 
BRANCH  25  28
ATOM     28  C   UNL     1     -47.129  37.857  28.076  1.00  0.00    -0.027 A 
ATOM     29  C   UNL     1     -48.413  38.381  28.104  1.00  0.00     0.030 A 
ATOM     30  C   UNL     1     -46.079  38.734  27.770  1.00  0.00    -0.032 A 
ATOM     31  N   UNL     1     -48.702  39.671  27.829  1.00  0.00    -0.262 NA
ATOM     32  H   UNL     1     -49.275  37.761  28.333  1.00  0.00     0.084 H 
ATOM     33  C   UNL     1     -46.342  40.051  27.391  1.00  0.00     0.066 A 
ATOM     34  H   UNL     1     -45.077  38.322  27.725  1.00  0.00     0.065 H 
ATOM     35  C   UNL     1     -47.667  40.467  27.458  1.00  0.00     0.051 A 
ATOM     36  H   UNL     1     -47.983  41.476  27.216  1.00  0.00     0.086 H 
BRANCH  33  37
ATOM     37  N   UNL     1     -45.320  40.897  26.854  1.00  0.00    -0.298 N 
ATOM     38  C   UNL     1     -45.403  41.573  25.647  1.00  0.00     0.031 A 
ATOM     39  C   UNL     1     -44.054  41.160  27.387  1.00  0.00     0.151 A 
ATOM     40  C   UNL     1     -44.186  42.149  25.371  1.00  0.00     0.072 A 
ATOM     41  H   UNL     1     -46.291  41.547  25.034  1.00  0.00     0.084 H 
ATOM     42  C   UNL     1     -43.322  41.897  26.459  1.00  0.00     0.080 A 
ATOM     43  N   UNL     1     -43.596  40.782  28.598  1.00  0.00    -0.218 NA
ATOM     44  Cl  UNL     1     -43.806  43.030  23.966  1.00  0.00    -0.082 Cl
ATOM     45  C   UNL     1     -41.996  42.213  26.795  1.00  0.00     0.137 A 
ATOM     46  C   UNL     1     -42.328  41.149  28.813  1.00  0.00     0.120 A 
ATOM     47  N   UNL     1     -41.515  41.832  27.993  1.00  0.00    -0.219 NA
ATOM     48  H   UNL     1     -41.902  40.860  29.769  1.00  0.00     0.106 H 
BRANCH  45  49
ATOM     49  N   UNL     1     -41.134  42.923  25.976  1.00  0.00    -0.383 N 
ATOM     50  H   UNL     1     -40.941  42.509  25.073  1.00  0.00     0.158 HD
ATOM     51  H   UNL     1     -41.309  43.919  26.009  1.00  0.00     0.158 HD
ENDBRANCH  45  49
ENDBRANCH  33  37
ENDBRANCH  25  28
ENDBRANCH   1  25
TORSDOF 7
ENDMDL
MODEL 3
REMARK VINA RESULT:      -9.9      3.429     10.606
REMARK SMILES CNc1ccc2ccc(CCc3cncc(-n4cc(Cl)c5c(N)ncnc54)c3)cc2n1
REMARK SMILES IDX 10 1 9 4 3 5 4 6 31 7 5 8 30 10 6 11 29 13 7 14 8 16 2 19
REMARK SMILES IDX 1 21 11 25 12 28 13 29 28 30 14 31 16 33 15 35 17 37 18 38
REMARK SMILES IDX 27 39 19 40 21 42 26 43 20 44 22 45 25 46 24 47 23 49
REMARK H PARENT 10 2 10 3 4 9 5 12 29 15 7 17 8 18 2 20 1 22 1 23 1 24 11 26
REMARK H PARENT 11 27 13 32 28 34 15 36 18 41 25 48 23 50 23 51
REMARK Flexibility Score: inf
ROOT
ATOM      1  C   UNL     1     -48.597  34.992  27.017  1.00  0.00    -0.024 C 
ATOM      2  H   UNL     1     -48.595  34.759  28.089  1.00  0.00     0.032 H 
ATOM      3  H   UNL     1     -49.653  35.082  26.728  1.00  0.00     0.032 H 
ENDROOT
BRANCH   1   4
ATOM      4  C   UNL     1     -47.963  33.841  26.266  1.00  0.00    -0.046 A 
ATOM      5  C   UNL     1     -48.631  29.592  24.214  1.00  0.00     0.126 A 
ATOM      6  C   UNL     1     -47.462  29.717  23.472  1.00  0.00    -0.019 A 
ATOM      7  N   UNL     1     -49.006  30.534  25.102  1.00  0.00    -0.231 NA
ATOM      8  C   UNL     1     -46.649  30.832  23.655  1.00  0.00    -0.049 A 
ATOM      9  H   UNL     1     -47.196  28.967  22.733  1.00  0.00     0.066 H 
ATOM     10  C   UNL     1     -48.234  31.623  25.270  1.00  0.00     0.073 A 
ATOM     11  C   UNL     1     -47.036  31.822  24.561  1.00  0.00     0.000 A 
ATOM     12  H   UNL     1     -45.746  30.935  23.063  1.00  0.00     0.063 H 
ATOM     13  C   UNL     1     -48.653  32.622  26.136  1.00  0.00    -0.032 A 
ATOM     14  C   UNL     1     -46.288  32.999  24.742  1.00  0.00    -0.053 A 
ATOM     15  H   UNL     1     -49.599  32.480  26.657  1.00  0.00     0.065 H 
ATOM     16  C   UNL     1     -46.757  34.009  25.582  1.00  0.00    -0.058 A 
ATOM     17  H   UNL     1     -45.361  33.151  24.196  1.00  0.00     0.063 H 
ATOM     18  H   UNL     1     -46.198  34.939  25.663  1.00  0.00     0.063 H 
BRANCH   5  19
ATOM     19  N   UNL     1     -49.454  28.480  23.963  1.00  0.00    -0.373 N 
ATOM     20  H   UNL     1     -50.426  28.773  24.004  1.00  0.00     0.161 HD
BRANCH  19  21
ATOM     21  C   UNL     1     -49.147  27.772  22.732  1.00  0.00     0.005 C 
ATOM     22  H   UNL     1     -49.996  27.780  22.040  1.00  0.00     0.045 H 
ATOM     23  H   UNL     1     -48.838  26.739  22.927  1.00  0.00     0.045 H 
ATOM     24  H   UNL     1     -48.315  28.277  22.230  1.00  0.00     0.045 H 
ENDBRANCH  19  21
ENDBRANCH   5  19
ENDBRANCH   1   4
BRANCH   1  25
ATOM     25  C   UNL     1     -47.868  36.337  26.791  1.00  0.00    -0.022 C 
ATOM     26  H   UNL     1     -48.595  37.153  26.687  1.00  0.00     0.032 H 
ATOM     27  H   UNL     1     -47.328  36.293  25.836  1.00  0.00     0.032 H 
BRANCH  25  28
ATOM     28  C   UNL     1     -46.895  36.678  27.894  1.00  0.00    -0.027 A 
ATOM     29  C   UNL     1     -47.038  36.170  29.176  1.00  0.00     0.030 A 
ATOM     30  C   UNL     1     -45.884  37.627  27.683  1.00  0.00    -0.032 A 
ATOM     31  N   UNL     1     -46.281  36.558  30.224  1.00  0.00    -0.262 NA
ATOM     32  H   UNL     1     -47.800  35.433  29.413  1.00  0.00     0.084 H 
ATOM     33  C   UNL     1     -45.140  38.122  28.755  1.00  0.00     0.066 A 
ATOM     34  H   UNL     1     -45.785  38.042  26.685  1.00  0.00     0.065 H 
ATOM     35  C   UNL     1     -45.370  37.537  29.995  1.00  0.00     0.051 A 
ATOM     36  H   UNL     1     -44.829  37.821  30.891  1.00  0.00     0.086 H 
BRANCH  33  37
ATOM     37  N   UNL     1     -44.269  39.248  28.609  1.00  0.00    -0.298 N 
ATOM     38  C   UNL     1     -43.285  39.612  29.515  1.00  0.00     0.031 A 
ATOM     39  C   UNL     1     -44.270  40.209  27.594  1.00  0.00     0.151 A 
ATOM     40  C   UNL     1     -42.760  40.826  29.143  1.00  0.00     0.072 A 
ATOM     41  H   UNL     1     -43.068  39.023  30.394  1.00  0.00     0.084 H 
ATOM     42  C   UNL     1     -43.371  41.218  27.932  1.00  0.00     0.080 A 
ATOM     43  N   UNL     1     -45.001  40.182  26.460  1.00  0.00    -0.218 NA
ATOM     44  Cl  UNL     1     -41.565  41.688  29.993  1.00  0.00    -0.082 Cl
ATOM     45  C   UNL     1     -43.272  42.308  27.053  1.00  0.00     0.137 A 
ATOM     46  C   UNL     1     -44.815  41.264  25.695  1.00  0.00     0.120 A 
ATOM     47  N   UNL     1     -44.004  42.309  25.924  1.00  0.00    -0.219 NA
ATOM     48  H   UNL     1     -45.388  41.302  24.774  1.00  0.00     0.106 H 
BRANCH  45  49
ATOM     49  N   UNL     1     -42.440  43.398  27.255  1.00  0.00    -0.383 N 
ATOM     50  H   UNL     1     -42.897  44.300  27.300  1.00  0.00     0.158 HD
ATOM     51  H   UNL     1     -41.714  43.204  27.933  1.00  0.00     0.158 HD
ENDBRANCH  45  49
ENDBRANCH  33  37
ENDBRANCH  25  28
ENDBRANCH   1  25
TORSDOF 7
ENDMDL
MODEL 4
REMARK VINA RESULT:      -9.7      3.700     10.226
REMARK SMILES CNc1ccc2ccc(CCc3cncc(-n4cc(Cl)c5c(N)ncnc54)c3)cc2n1
REMARK SMILES IDX 10 1 9 4 3 5 4 6 31 7 5 8 30 10 6 11 29 13 7 14 8 16 2 19
REMARK SMILES IDX 1 21 11 25 12 28 13 29 28 30 14 31 16 33 15 35 17 37 18 38
REMARK SMILES IDX 27 39 19 40 21 42 26 43 20 44 22 45 25 46 24 47 23 49
REMARK H PARENT 10 2 10 3 4 9 5 12 29 15 7 17 8 18 2 20 1 22 1 23 1 24 11 26
REMARK H PARENT 11 27 13 32 28 34 15 36 18 41 25 48 23 50 23 51
REMARK Flexibility Score: inf
ROOT
ATOM      1  C   UNL     1     -46.569  38.280  28.663  1.00  0.00    -0.024 C 
ATOM      2  H   UNL     1     -47.110  38.404  29.609  1.00  0.00     0.032 H 
ATOM      3  H   UNL     1     -46.682  39.229  28.123  1.00  0.00     0.032 H 
ENDROOT
BRANCH   1   4
ATOM      4  C   UNL     1     -47.218  37.166  27.872  1.00  0.00    -0.046 A 
ATOM      5  C   UNL     1     -46.567  33.096  25.478  1.00  0.00     0.126 A 
ATOM      6  C   UNL     1     -47.911  32.759  25.596  1.00  0.00    -0.019 A 
ATOM      7  N   UNL     1     -46.087  34.262  25.956  1.00  0.00    -0.231 NA
ATOM      8  C   UNL     1     -48.789  33.649  26.208  1.00  0.00    -0.049 A 
ATOM      9  H   UNL     1     -48.270  31.800  25.240  1.00  0.00     0.066 H 
ATOM     10  C   UNL     1     -46.928  35.117  26.565  1.00  0.00     0.073 A 
ATOM     11  C   UNL     1     -48.300  34.853  26.720  1.00  0.00     0.000 A 
ATOM     12  H   UNL     1     -49.834  33.377  26.313  1.00  0.00     0.063 H 
ATOM     13  C   UNL     1     -46.423  36.288  27.113  1.00  0.00    -0.032 A 
ATOM     14  C   UNL     1     -49.128  35.762  27.404  1.00  0.00    -0.053 A 
ATOM     15  H   UNL     1     -45.353  36.471  27.021  1.00  0.00     0.065 H 
ATOM     16  C   UNL     1     -48.586  36.907  27.988  1.00  0.00    -0.058 A 
ATOM     17  H   UNL     1     -50.189  35.559  27.521  1.00  0.00     0.063 H 
ATOM     18  H   UNL     1     -49.228  37.568  28.566  1.00  0.00     0.063 H 
BRANCH   5  19
ATOM     19  N   UNL     1     -45.699  32.150  24.904  1.00  0.00    -0.373 N 
ATOM     20  H   UNL     1     -45.288  31.587  25.642  1.00  0.00     0.161 HD
BRANCH  19  21
ATOM     21  C   UNL     1     -46.305  31.334  23.866  1.00  0.00     0.005 C 
ATOM     22  H   UNL     1     -47.283  30.949  24.176  1.00  0.00     0.045 H 
ATOM     23  H   UNL     1     -45.655  30.502  23.575  1.00  0.00     0.045 H 
ATOM     24  H   UNL     1     -46.468  31.953  22.977  1.00  0.00     0.045 H 
ENDBRANCH  19  21
ENDBRANCH   5  19
ENDBRANCH   1   4
BRANCH   1  25
ATOM     25  C   UNL     1     -45.075  38.016  28.966  1.00  0.00    -0.022 C 
ATOM     26  H   UNL     1     -44.709  37.171  28.368  1.00  0.00     0.032 H 
ATOM     27  H   UNL     1     -44.974  37.709  30.014  1.00  0.00     0.032 H 
BRANCH  25  28
ATOM     28  C   UNL     1     -44.196  39.218  28.716  1.00  0.00    -0.027 A 
ATOM     29  C   UNL     1     -43.301  39.677  29.671  1.00  0.00     0.030 A 
ATOM     30  C   UNL     1     -44.353  39.985  27.553  1.00  0.00    -0.032 A 
ATOM     31  N   UNL     1     -42.602  40.826  29.550  1.00  0.00    -0.262 NA
ATOM     32  H   UNL     1     -43.130  39.135  30.597  1.00  0.00     0.084 H 
ATOM     33  C   UNL     1     -43.720  41.223  27.428  1.00  0.00     0.066 A 
ATOM     34  H   UNL     1     -45.070  39.639  26.815  1.00  0.00     0.065 H 
ATOM     35  C   UNL     1     -42.843  41.579  28.448  1.00  0.00     0.051 A 
ATOM     36  H   UNL     1     -42.275  42.503  28.441  1.00  0.00     0.086 H 
BRANCH  33  37
ATOM     37  N   UNL     1     -44.038  42.127  26.366  1.00  0.00    -0.298 N 
ATOM     38  C   UNL     1     -43.134  42.598  25.427  1.00  0.00     0.031 A 
ATOM     39  C   UNL     1     -45.266  42.743  26.101  1.00  0.00     0.151 A 
ATOM     40  C   UNL     1     -43.741  43.568  24.667  1.00  0.00     0.072 A 
ATOM     41  H   UNL     1     -42.107  42.265  25.403  1.00  0.00     0.084 H 
ATOM     42  C   UNL     1     -45.088  43.673  25.080  1.00  0.00     0.080 A 
ATOM     43  N   UNL     1     -46.442  42.489  26.711  1.00  0.00    -0.218 NA
ATOM     44  Cl  UNL     1     -42.994  44.466  23.430  1.00  0.00    -0.082 Cl
ATOM     45  C   UNL     1     -46.205  44.437  24.708  1.00  0.00     0.137 A 
ATOM     46  C   UNL     1     -47.436  43.267  26.267  1.00  0.00     0.120 A 
ATOM     47  N   UNL     1     -47.385  44.211  25.315  1.00  0.00    -0.219 NA
ATOM     48  H   UNL     1     -48.405  43.115  26.732  1.00  0.00     0.106 H 
BRANCH  45  49
ATOM     49  N   UNL     1     -46.189  45.413  23.725  1.00  0.00    -0.383 N 
ATOM     50  H   UNL     1     -47.005  45.451  23.127  1.00  0.00     0.158 HD
ATOM     51  H   UNL     1     -45.812  46.289  24.063  1.00  0.00     0.158 HD
ENDBRANCH  45  49
ENDBRANCH  33  37
ENDBRANCH  25  28
ENDBRANCH   1  25
TORSDOF 7
ENDMDL
MODEL 5
REMARK VINA RESULT:      -9.6      2.103      3.121
REMARK SMILES CNc1ccc2ccc(CCc3cncc(-n4cc(Cl)c5c(N)ncnc54)c3)cc2n1
REMARK SMILES IDX 10 1 9 4 3 5 4 6 31 7 5 8 30 10 6 11 29 13 7 14 8 16 2 19
REMARK SMILES IDX 1 21 11 25 12 28 13 29 28 30 14 31 16 33 15 35 17 37 18 38
REMARK SMILES IDX 27 39 19 40 21 42 26 43 20 44 22 45 25 46 24 47 23 49
REMARK H PARENT 10 2 10 3 4 9 5 12 29 15 7 17 8 18 2 20 1 22 1 23 1 24 11 26
REMARK H PARENT 11 27 13 32 28 34 15 36 18 41 25 48 23 50 23 51
REMARK Flexibility Score: inf
ROOT
ATOM      1  C   UNL     1     -47.680  35.810  28.253  1.00  0.00    -0.024 C 
ATOM      2  H   UNL     1     -48.308  35.892  29.149  1.00  0.00     0.032 H 
ATOM      3  H   UNL     1     -46.918  35.055  28.485  1.00  0.00     0.032 H 
ENDROOT
BRANCH   1   4
ATOM      4  C   UNL     1     -47.012  37.145  28.003  1.00  0.00    -0.046 A 
ATOM      5  C   UNL     1     -43.402  40.049  29.121  1.00  0.00     0.126 A 
ATOM      6  C   UNL     1     -43.563  40.774  27.946  1.00  0.00    -0.019 A 
ATOM      7  N   UNL     1     -44.226  39.031  29.440  1.00  0.00    -0.231 NA
ATOM      8  C   UNL     1     -44.605  40.455  27.081  1.00  0.00    -0.049 A 
ATOM      9  H   UNL     1     -42.866  41.564  27.688  1.00  0.00     0.066 H 
ATOM     10  C   UNL     1     -45.225  38.707  28.598  1.00  0.00     0.073 A 
ATOM     11  C   UNL     1     -45.456  39.392  27.393  1.00  0.00     0.000 A 
ATOM     12  H   UNL     1     -44.719  41.012  26.157  1.00  0.00     0.063 H 
ATOM     13  C   UNL     1     -46.033  37.618  28.895  1.00  0.00    -0.032 A 
ATOM     14  C   UNL     1     -46.487  38.985  26.528  1.00  0.00    -0.053 A 
ATOM     15  H   UNL     1     -45.827  37.068  29.813  1.00  0.00     0.065 H 
ATOM     16  C   UNL     1     -47.253  37.858  26.827  1.00  0.00    -0.058 A 
ATOM     17  H   UNL     1     -46.668  39.517  25.598  1.00  0.00     0.063 H 
ATOM     18  H   UNL     1     -48.005  37.519  26.117  1.00  0.00     0.063 H 
BRANCH   5  19
ATOM     19  N   UNL     1     -42.306  40.363  29.944  1.00  0.00    -0.373 N 
ATOM     20  H   UNL     1     -41.714  39.542  30.034  1.00  0.00     0.161 HD
BRANCH  19  21
ATOM     21  C   UNL     1     -41.557  41.534  29.522  1.00  0.00     0.005 C 
ATOM     22  H   UNL     1     -41.437  41.566  28.434  1.00  0.00     0.045 H 
ATOM     23  H   UNL     1     -40.573  41.579  30.004  1.00  0.00     0.045 H 
ATOM     24  H   UNL     1     -42.109  42.433  29.814  1.00  0.00     0.045 H 
ENDBRANCH  19  21
ENDBRANCH   5  19
ENDBRANCH   1   4
BRANCH   1  25
ATOM     25  C   UNL     1     -48.552  35.338  27.067  1.00  0.00    -0.022 C 
ATOM     26  H   UNL     1     -48.719  36.165  26.363  1.00  0.00     0.032 H 
ATOM     27  H   UNL     1     -49.545  35.060  27.443  1.00  0.00     0.032 H 
BRANCH  25  28
ATOM     28  C   UNL     1     -47.960  34.167  26.322  1.00  0.00    -0.027 A 
ATOM     29  C   UNL     1     -46.647  34.175  25.875  1.00  0.00     0.030 A 
ATOM     30  C   UNL     1     -48.765  33.082  25.945  1.00  0.00    -0.032 A 
ATOM     31  N   UNL     1     -46.119  33.217  25.084  1.00  0.00    -0.262 NA
ATOM     32  H   UNL     1     -45.966  34.984  26.126  1.00  0.00     0.084 H 
ATOM     33  C   UNL     1     -48.287  32.119  25.056  1.00  0.00     0.066 A 
ATOM     34  H   UNL     1     -49.799  33.085  26.275  1.00  0.00     0.065 H 
ATOM     35  C   UNL     1     -46.953  32.228  24.676  1.00  0.00     0.051 A 
ATOM     36  H   UNL     1     -46.468  31.519  24.014  1.00  0.00     0.086 H 
BRANCH  33  37
ATOM     37  N   UNL     1     -49.151  31.136  24.476  1.00  0.00    -0.298 N 
ATOM     38  C   UNL     1     -50.046  31.375  23.446  1.00  0.00     0.031 A 
ATOM     39  C   UNL     1     -49.306  29.798  24.855  1.00  0.00     0.151 A 
ATOM     40  C   UNL     1     -50.823  30.257  23.258  1.00  0.00     0.072 A 
ATOM     41  H   UNL     1     -50.119  32.337  22.961  1.00  0.00     0.084 H 
ATOM     42  C   UNL     1     -50.370  29.252  24.140  1.00  0.00     0.080 A 
ATOM     43  N   UNL     1     -48.558  29.123  25.752  1.00  0.00    -0.218 NA
ATOM     44  Cl  UNL     1     -52.095  30.115  22.137  1.00  0.00    -0.082 Cl
ATOM     45  C   UNL     1     -50.715  27.922  24.425  1.00  0.00     0.137 A 
ATOM     46  C   UNL     1     -48.972  27.864  25.931  1.00  0.00     0.120 A 
ATOM     47  N   UNL     1     -49.992  27.235  25.328  1.00  0.00    -0.219 NA
ATOM     48  H   UNL     1     -48.413  27.276  26.652  1.00  0.00     0.106 H 
BRANCH  45  49
ATOM     49  N   UNL     1     -51.757  27.241  23.816  1.00  0.00    -0.383 N 
ATOM     50  H   UNL     1     -52.353  27.793  23.212  1.00  0.00     0.158 HD
ATOM     51  H   UNL     1     -51.474  26.325  23.488  1.00  0.00     0.158 HD
ENDBRANCH  45  49
ENDBRANCH  33  37
ENDBRANCH  25  28
ENDBRANCH   1  25
TORSDOF 7
ENDMDL
MODEL 6
REMARK VINA RESULT:      -9.4      3.366     10.901
REMARK SMILES CNc1ccc2ccc(CCc3cncc(-n4cc(Cl)c5c(N)ncnc54)c3)cc2n1
REMARK SMILES IDX 10 1 9 4 3 5 4 6 31 7 5 8 30 10 6 11 29 13 7 14 8 16 2 19
REMARK SMILES IDX 1 21 11 25 12 28 13 29 28 30 14 31 16 33 15 35 17 37 18 38
REMARK SMILES IDX 27 39 19 40 21 42 26 43 20 44 22 45 25 46 24 47 23 49
REMARK H PARENT 10 2 10 3 4 9 5 12 29 15 7 17 8 18 2 20 1 22 1 23 1 24 11 26
REMARK H PARENT 11 27 13 32 28 34 15 36 18 41 25 48 23 50 23 51
REMARK Flexibility Score: inf
ROOT
ATOM      1  C   UNL     1     -47.905  34.998  26.818  1.00  0.00    -0.024 C 
ATOM      2  H   UNL     1     -48.145  34.742  27.857  1.00  0.00     0.032 H 
ATOM      3  H   UNL     1     -48.785  35.524  26.424  1.00  0.00     0.032 H 
ENDROOT
BRANCH   1   4
ATOM      4  C   UNL     1     -47.688  33.719  26.039  1.00  0.00    -0.046 A 
ATOM      5  C   UNL     1     -49.722  30.150  23.621  1.00  0.00     0.126 A 
ATOM      6  C   UNL     1     -48.523  29.834  22.991  1.00  0.00    -0.019 A 
ATOM      7  N   UNL     1     -49.797  31.131  24.543  1.00  0.00    -0.231 NA
ATOM      8  C   UNL     1     -47.368  30.534  23.326  1.00  0.00    -0.049 A 
ATOM      9  H   UNL     1     -48.491  29.068  22.224  1.00  0.00     0.066 H 
ATOM     10  C   UNL     1     -48.687  31.823  24.857  1.00  0.00     0.073 A 
ATOM     11  C   UNL     1     -47.437  31.562  24.269  1.00  0.00     0.000 A 
ATOM     12  H   UNL     1     -46.437  30.296  22.822  1.00  0.00     0.063 H 
ATOM     13  C   UNL     1     -48.778  32.874  25.759  1.00  0.00    -0.032 A 
ATOM     14  C   UNL     1     -46.316  32.344  24.601  1.00  0.00    -0.053 A 
ATOM     15  H   UNL     1     -49.755  33.094  26.185  1.00  0.00     0.065 H 
ATOM     16  C   UNL     1     -46.445  33.426  25.473  1.00  0.00    -0.058 A 
ATOM     17  H   UNL     1     -45.350  32.141  24.149  1.00  0.00     0.063 H 
ATOM     18  H   UNL     1     -45.583  34.059  25.671  1.00  0.00     0.063 H 
BRANCH   5  19
ATOM     19  N   UNL     1     -50.879  29.460  23.218  1.00  0.00    -0.373 N 
ATOM     20  H   UNL     1     -50.815  29.258  22.225  1.00  0.00     0.161 HD
BRANCH  19  21
ATOM     21  C   UNL     1     -51.170  28.271  24.001  1.00  0.00     0.005 C 
ATOM     22  H   UNL     1     -50.340  27.557  23.973  1.00  0.00     0.045 H 
ATOM     23  H   UNL     1     -52.091  27.781  23.664  1.00  0.00     0.045 H 
ATOM     24  H   UNL     1     -51.314  28.561  25.047  1.00  0.00     0.045 H 
ENDBRANCH  19  21
ENDBRANCH   5  19
ENDBRANCH   1   4
BRANCH   1  25
ATOM     25  C   UNL     1     -46.674  35.934  26.799  1.00  0.00    -0.022 C 
ATOM     26  H   UNL     1     -46.251  35.987  25.788  1.00  0.00     0.032 H 
ATOM     27  H   UNL     1     -45.888  35.500  27.430  1.00  0.00     0.032 H 
BRANCH  25  28
ATOM     28  C   UNL     1     -46.981  37.331  27.282  1.00  0.00    -0.027 A 
ATOM     29  C   UNL     1     -48.206  37.654  27.845  1.00  0.00     0.030 A 
ATOM     30  C   UNL     1     -46.076  38.377  27.055  1.00  0.00    -0.032 A 
ATOM     31  N   UNL     1     -48.577  38.914  28.158  1.00  0.00    -0.262 NA
ATOM     32  H   UNL     1     -48.957  36.896  28.048  1.00  0.00     0.084 H 
ATOM     33  C   UNL     1     -46.452  39.702  27.279  1.00  0.00     0.066 A 
ATOM     34  H   UNL     1     -45.126  38.129  26.594  1.00  0.00     0.065 H 
ATOM     35  C   UNL     1     -47.705  39.906  27.848  1.00  0.00     0.051 A 
ATOM     36  H   UNL     1     -48.089  40.891  28.092  1.00  0.00     0.086 H 
BRANCH  33  37
ATOM     37  N   UNL     1     -45.642  40.798  26.843  1.00  0.00    -0.298 N 
ATOM     38  C   UNL     1     -45.973  41.672  25.820  1.00  0.00     0.031 A 
ATOM     39  C   UNL     1     -44.372  41.163  27.302  1.00  0.00     0.151 A 
ATOM     40  C   UNL     1     -44.899  42.489  25.563  1.00  0.00     0.072 A 
ATOM     41  H   UNL     1     -46.917  41.614  25.299  1.00  0.00     0.084 H 
ATOM     42  C   UNL     1     -43.879  42.181  26.490  1.00  0.00     0.080 A 
ATOM     43  N   UNL     1     -43.717  40.640  28.359  1.00  0.00    -0.218 NA
ATOM     44  Cl  UNL     1     -44.830  43.679  24.349  1.00  0.00    -0.082 Cl
ATOM     45  C   UNL     1     -42.583  42.647  26.763  1.00  0.00     0.137 A 
ATOM     46  C   UNL     1     -42.500  41.169  28.530  1.00  0.00     0.120 A 
ATOM     47  N   UNL     1     -41.906  42.128  27.804  1.00  0.00    -0.219 NA
ATOM     48  H   UNL     1     -41.922  40.777  29.361  1.00  0.00     0.106 H 
BRANCH  45  49
ATOM     49  N   UNL     1     -41.943  43.639  26.039  1.00  0.00    -0.383 N 
ATOM     50  H   UNL     1     -42.515  44.132  25.364  1.00  0.00     0.158 HD
ATOM     51  H   UNL     1     -41.316  44.188  26.614  1.00  0.00     0.158 HD
ENDBRANCH  45  49
ENDBRANCH  33  37
ENDBRANCH  25  28
ENDBRANCH   1  25
TORSDOF 7
ENDMDL
MODEL 7
REMARK VINA RESULT:      -9.4      3.276     10.654
REMARK SMILES CNc1ccc2ccc(CCc3cncc(-n4cc(Cl)c5c(N)ncnc54)c3)cc2n1
REMARK SMILES IDX 10 1 9 4 3 5 4 6 31 7 5 8 30 10 6 11 29 13 7 14 8 16 2 19
REMARK SMILES IDX 1 21 11 25 12 28 13 29 28 30 14 31 16 33 15 35 17 37 18 38
REMARK SMILES IDX 27 39 19 40 21 42 26 43 20 44 22 45 25 46 24 47 23 49
REMARK H PARENT 10 2 10 3 4 9 5 12 29 15 7 17 8 18 2 20 1 22 1 23 1 24 11 26
REMARK H PARENT 11 27 13 32 28 34 15 36 18 41 25 48 23 50 23 51
REMARK Flexibility Score: inf
ROOT
ATOM      1  C   UNL     1     -47.124  33.936  27.205  1.00  0.00    -0.024 C 
ATOM      2  H   UNL     1     -46.673  33.246  27.931  1.00  0.00     0.032 H 
ATOM      3  H   UNL     1     -47.985  34.390  27.714  1.00  0.00     0.032 H 
ENDROOT
BRANCH   1   4
ATOM      4  C   UNL     1     -47.603  33.141  26.010  1.00  0.00    -0.046 A 
ATOM      5  C   UNL     1     -46.390  30.229  22.437  1.00  0.00     0.126 A 
ATOM      6  C   UNL     1     -47.703  29.799  22.282  1.00  0.00    -0.019 A 
ATOM      7  N   UNL     1     -46.059  31.174  23.339  1.00  0.00    -0.231 NA
ATOM      8  C   UNL     1     -48.706  30.363  23.065  1.00  0.00    -0.049 A 
ATOM      9  H   UNL     1     -47.944  29.010  21.578  1.00  0.00     0.066 H 
ATOM     10  C   UNL     1     -47.021  31.710  24.112  1.00  0.00     0.073 A 
ATOM     11  C   UNL     1     -48.372  31.332  24.015  1.00  0.00     0.000 A 
ATOM     12  H   UNL     1     -49.727  30.015  22.954  1.00  0.00     0.063 H 
ATOM     13  C   UNL     1     -46.671  32.635  25.085  1.00  0.00    -0.032 A 
ATOM     14  C   UNL     1     -49.332  31.891  24.877  1.00  0.00    -0.053 A 
ATOM     15  H   UNL     1     -45.619  32.898  25.180  1.00  0.00     0.065 H 
ATOM     16  C   UNL     1     -48.946  32.782  25.878  1.00  0.00    -0.058 A 
ATOM     17  H   UNL     1     -50.377  31.601  24.800  1.00  0.00     0.063 H 
ATOM     18  H   UNL     1     -49.691  33.158  26.576  1.00  0.00     0.063 H 
BRANCH   5  19
ATOM     19  N   UNL     1     -45.396  29.599  21.668  1.00  0.00    -0.373 N 
ATOM     20  H   UNL     1     -44.834  30.309  21.208  1.00  0.00     0.161 HD
BRANCH  19  21
ATOM     21  C   UNL     1     -44.581  28.649  22.405  1.00  0.00     0.005 C 
ATOM     22  H   UNL     1     -45.139  27.736  22.640  1.00  0.00     0.045 H 
ATOM     23  H   UNL     1     -44.184  29.088  23.328  1.00  0.00     0.045 H 
ATOM     24  H   UNL     1     -43.727  28.357  21.784  1.00  0.00     0.045 H 
ENDBRANCH  19  21
ENDBRANCH   5  19
ENDBRANCH   1   4
BRANCH   1  25
ATOM     25  C   UNL     1     -46.091  35.025  26.834  1.00  0.00    -0.022 C 
ATOM     26  H   UNL     1     -46.009  35.116  25.743  1.00  0.00     0.032 H 
ATOM     27  H   UNL     1     -45.100  34.709  27.183  1.00  0.00     0.032 H 
BRANCH  25  28
ATOM     28  C   UNL     1     -46.414  36.377  27.421  1.00  0.00    -0.027 A 
ATOM     29  C   UNL     1     -47.722  36.777  27.653  1.00  0.00     0.030 A 
ATOM     30  C   UNL     1     -45.401  37.323  27.630  1.00  0.00    -0.032 A 
ATOM     31  N   UNL     1     -48.065  38.024  28.040  1.00  0.00    -0.262 NA
ATOM     32  H   UNL     1     -48.558  36.098  27.511  1.00  0.00     0.084 H 
ATOM     33  C   UNL     1     -45.718  38.646  27.940  1.00  0.00     0.066 A 
ATOM     34  H   UNL     1     -44.379  37.019  27.427  1.00  0.00     0.065 H 
ATOM     35  C   UNL     1     -47.063  38.931  28.152  1.00  0.00     0.051 A 
ATOM     36  H   UNL     1     -47.421  39.918  28.427  1.00  0.00     0.086 H 
BRANCH  33  37
ATOM     37  N   UNL     1     -44.727  39.679  27.932  1.00  0.00    -0.298 N 
ATOM     38  C   UNL     1     -43.710  39.810  28.865  1.00  0.00     0.031 A 
ATOM     39  C   UNL     1     -44.619  40.760  27.051  1.00  0.00     0.151 A 
ATOM     40  C   UNL     1     -43.054  40.997  28.649  1.00  0.00     0.072 A 
ATOM     41  H   UNL     1     -43.562  39.091  29.657  1.00  0.00     0.084 H 
ATOM     42  C   UNL     1     -43.616  41.610  27.508  1.00  0.00     0.080 A 
ATOM     43  N   UNL     1     -45.347  40.962  25.933  1.00  0.00    -0.218 NA
ATOM     44  Cl  UNL     1     -41.772  41.603  29.589  1.00  0.00    -0.082 Cl
ATOM     45  C   UNL     1     -43.394  42.788  26.777  1.00  0.00     0.137 A 
ATOM     46  C   UNL     1     -45.040  42.108  25.314  1.00  0.00     0.120 A 
ATOM     47  N   UNL     1     -44.120  43.018  25.667  1.00  0.00    -0.219 NA
ATOM     48  H   UNL     1     -45.604  42.329  24.413  1.00  0.00     0.106 H 
BRANCH  45  49
ATOM     49  N   UNL     1     -42.448  43.744  27.109  1.00  0.00    -0.383 N 
ATOM     50  H   UNL     1     -41.621  43.768  26.526  1.00  0.00     0.158 HD
ATOM     51  H   UNL     1     -42.871  44.628  27.363  1.00  0.00     0.158 HD
ENDBRANCH  45  49
ENDBRANCH  33  37
ENDBRANCH  25  28
ENDBRANCH   1  25
TORSDOF 7
ENDMDL
