MODEL 1
REMARK VINA RESULT:     -11.5      0.000      0.000
REMARK SMILES Cn1ccc(-c2cn(-c3cncc(COc4ccc5ccc(N6CCOCC6=O)nc5c4)c3)c3ncnc(N)c23)n1
REMARK SMILES IDX 9 1 10 2 11 3 12 4 13 5 33 6 8 10 6 11 7 12 40 13 34 15
REMARK SMILES IDX 38 16 35 17 37 18 36 19 5 21 2 22 3 23 41 24 4 25 1 28 39 32
REMARK SMILES IDX 14 35 15 38 16 39 17 40 32 41 18 42 31 44 19 46 30 48 20 49
REMARK SMILES IDX 22 50 21 51 23 54 24 55 28 56 25 57 27 60 29 61 26 62
REMARK H PARENT 10 7 12 8 33 9 7 14 36 20 3 26 4 27 1 29 1 30 1 31 39 33 39 34
REMARK H PARENT 14 36 14 37 17 43 32 45 18 47 20 52 21 53 24 58 24 59 25 63
REMARK H PARENT 25 64 27 65 27 66
REMARK Flexibility Score: inf
ROOT
ATOM      1  C   UNL     1     -47.906  32.474  25.449  1.00  0.00     0.066 A 
ATOM      2  C   UNL     1     -46.596  32.780  25.093  1.00  0.00     0.051 A 
ATOM      3  N   UNL     1     -45.974  33.949  25.394  1.00  0.00    -0.262 NA
ATOM      4  C   UNL     1     -46.687  34.867  26.076  1.00  0.00     0.034 A 
ATOM      5  C   UNL     1     -48.005  34.685  26.471  1.00  0.00     0.010 A 
ATOM      6  C   UNL     1     -48.609  33.458  26.161  1.00  0.00    -0.028 A 
ATOM      7  H   UNL     1     -45.957  32.110  24.530  1.00  0.00     0.086 H 
ATOM      8  H   UNL     1     -46.147  35.783  26.299  1.00  0.00     0.084 H 
ATOM      9  H   UNL     1     -49.630  33.301  26.496  1.00  0.00     0.065 H 
ENDROOT
BRANCH   1  10
ATOM     10  N   UNL     1     -48.517  31.224  25.109  1.00  0.00    -0.299 N 
ATOM     11  C   UNL     1     -49.065  29.037  25.200  1.00  0.00     0.033 A 
ATOM     12  C   UNL     1     -48.355  30.046  25.814  1.00  0.00     0.021 A 
ATOM     13  C   UNL     1     -49.750  29.600  24.095  1.00  0.00     0.071 A 
ATOM     14  H   UNL     1     -47.751  29.984  26.708  1.00  0.00     0.083 H 
ATOM     15  C   UNL     1     -49.371  30.944  24.038  1.00  0.00     0.150 A 
ATOM     16  C   UNL     1     -50.664  29.161  23.121  1.00  0.00     0.137 A 
ATOM     17  N   UNL     1     -49.772  31.814  23.090  1.00  0.00    -0.218 NA
ATOM     18  N   UNL     1     -51.077  30.017  22.169  1.00  0.00    -0.219 NA
ATOM     19  C   UNL     1     -50.608  31.272  22.198  1.00  0.00     0.120 A 
ATOM     20  H   UNL     1     -50.955  31.929  21.406  1.00  0.00     0.106 H 
BRANCH  11  21
ATOM     21  C   UNL     1     -49.093  27.647  25.647  1.00  0.00     0.095 A 
ATOM     22  N   UNL     1     -48.439  25.709  26.172  1.00  0.00    -0.275 N 
ATOM     23  C   UNL     1     -49.798  25.648  26.267  1.00  0.00     0.025 A 
ATOM     24  N   UNL     1     -47.983  26.914  25.786  1.00  0.00    -0.173 NA
ATOM     25  C   UNL     1     -50.257  26.897  25.917  1.00  0.00    -0.016 A 
ATOM     26  H   UNL     1     -50.315  24.744  26.556  1.00  0.00     0.084 H 
ATOM     27  H   UNL     1     -51.288  27.217  25.860  1.00  0.00     0.066 H 
BRANCH  22  28
ATOM     28  C   UNL     1     -47.501  24.645  26.427  1.00  0.00     0.030 C 
ATOM     29  H   UNL     1     -47.529  24.408  27.494  1.00  0.00     0.048 H 
ATOM     30  H   UNL     1     -47.794  23.776  25.832  1.00  0.00     0.048 H 
ATOM     31  H   UNL     1     -46.496  24.969  26.144  1.00  0.00     0.048 H 
ENDBRANCH  22  28
ENDBRANCH  11  21
BRANCH  16  32
ATOM     32  N   UNL     1     -51.225  27.890  23.076  1.00  0.00    -0.383 N 
ATOM     33  H   UNL     1     -52.205  27.887  22.817  1.00  0.00     0.158 HD
ATOM     34  H   UNL     1     -50.634  27.279  22.522  1.00  0.00     0.158 HD
ENDBRANCH  16  32
ENDBRANCH   1  10
BRANCH   5  35
ATOM     35  C   UNL     1     -48.709  35.762  27.257  1.00  0.00     0.115 C 
ATOM     36  H   UNL     1     -48.516  36.715  26.751  1.00  0.00     0.076 H 
ATOM     37  H   UNL     1     -49.799  35.630  27.255  1.00  0.00     0.076 H 
BRANCH  35  38
ATOM     38  O   UNL     1     -48.215  35.907  28.591  1.00  0.00    -0.489 OA
BRANCH  38  39
ATOM     39  C   UNL     1     -47.142  36.728  28.806  1.00  0.00     0.122 A 
ATOM     40  C   UNL     1     -46.428  36.453  29.971  1.00  0.00    -0.019 A 
ATOM     41  C   UNL     1     -46.739  37.790  27.994  1.00  0.00     0.007 A 
ATOM     42  C   UNL     1     -45.317  37.221  30.310  1.00  0.00    -0.049 A 
ATOM     43  H   UNL     1     -46.737  35.635  30.617  1.00  0.00     0.066 H 
ATOM     44  C   UNL     1     -45.635  38.575  28.311  1.00  0.00     0.076 A 
ATOM     45  H   UNL     1     -47.283  38.056  27.094  1.00  0.00     0.069 H 
ATOM     46  C   UNL     1     -44.919  38.280  29.482  1.00  0.00     0.001 A 
ATOM     47  H   UNL     1     -44.769  36.990  31.221  1.00  0.00     0.063 H 
ATOM     48  N   UNL     1     -45.288  39.585  27.494  1.00  0.00    -0.230 NA
ATOM     49  C   UNL     1     -43.812  39.075  29.778  1.00  0.00    -0.049 A 
ATOM     50  C   UNL     1     -44.222  40.373  27.791  1.00  0.00     0.136 A 
ATOM     51  C   UNL     1     -43.460  40.122  28.926  1.00  0.00    -0.018 A 
ATOM     52  H   UNL     1     -43.212  38.891  30.666  1.00  0.00     0.063 H 
ATOM     53  H   UNL     1     -42.583  40.702  29.183  1.00  0.00     0.066 H 
BRANCH  50  54
ATOM     54  N   UNL     1     -43.931  41.428  26.870  1.00  0.00    -0.292 N 
ATOM     55  C   UNL     1     -45.093  42.038  26.207  1.00  0.00     0.051 C 
ATOM     56  C   UNL     1     -42.684  42.052  26.769  1.00  0.00     0.254 C 
ATOM     57  C   UNL     1     -44.722  42.743  24.911  1.00  0.00     0.065 C 
ATOM     58  H   UNL     1     -45.518  42.761  26.915  1.00  0.00     0.052 H 
ATOM     59  H   UNL     1     -45.844  41.278  25.966  1.00  0.00     0.052 H 
ATOM     60  C   UNL     1     -42.582  43.171  25.709  1.00  0.00     0.126 C 
ATOM     61  O   UNL     1     -41.674  41.756  27.408  1.00  0.00    -0.272 OA
ATOM     62  O   UNL     1     -43.764  43.755  25.194  1.00  0.00    -0.370 OA
ATOM     63  H   UNL     1     -45.604  43.224  24.476  1.00  0.00     0.059 H 
ATOM     64  H   UNL     1     -44.316  42.045  24.169  1.00  0.00     0.059 H 
ATOM     65  H   UNL     1     -42.004  42.766  24.870  1.00  0.00     0.067 H 
ATOM     66  H   UNL     1     -41.994  43.983  26.152  1.00  0.00     0.067 H 
ENDBRANCH  50  54
ENDBRANCH  38  39
ENDBRANCH  35  38
ENDBRANCH   5  35
TORSDOF 8
ENDMDL
MODEL 2
REMARK VINA RESULT:     -11.3      2.857     12.504
REMARK SMILES Cn1ccc(-c2cn(-c3cncc(COc4ccc5ccc(N6CCOCC6=O)nc5c4)c3)c3ncnc(N)c23)n1
REMARK SMILES IDX 9 1 10 2 11 3 12 4 13 5 33 6 8 10 6 11 7 12 40 13 34 15
REMARK SMILES IDX 38 16 35 17 37 18 36 19 5 21 2 22 3 23 41 24 4 25 1 28 39 32
REMARK SMILES IDX 14 35 15 38 16 39 17 40 32 41 18 42 31 44 19 46 30 48 20 49
REMARK SMILES IDX 22 50 21 51 23 54 24 55 28 56 25 57 27 60 29 61 26 62
REMARK H PARENT 10 7 12 8 33 9 7 14 36 20 3 26 4 27 1 29 1 30 1 31 39 33 39 34
REMARK H PARENT 14 36 14 37 17 43 32 45 18 47 20 52 21 53 24 58 24 59 25 63
REMARK H PARENT 25 64 27 65 27 66
REMARK Flexibility Score: inf
ROOT
ATOM      1  C   UNL     1     -45.765  38.776  28.160  1.00  0.00     0.066 A 
ATOM      2  C   UNL     1     -44.938  38.493  29.242  1.00  0.00     0.051 A 
ATOM      3  N   UNL     1     -45.016  37.361  29.990  1.00  0.00    -0.262 NA
ATOM      4  C   UNL     1     -45.966  36.468  29.654  1.00  0.00     0.034 A 
ATOM      5  C   UNL     1     -46.860  36.645  28.607  1.00  0.00     0.010 A 
ATOM      6  C   UNL     1     -46.737  37.815  27.844  1.00  0.00    -0.028 A 
ATOM      7  H   UNL     1     -44.161  39.162  29.593  1.00  0.00     0.086 H 
ATOM      8  H   UNL     1     -45.987  35.576  30.275  1.00  0.00     0.084 H 
ATOM      9  H   UNL     1     -47.415  37.942  27.006  1.00  0.00     0.065 H 
ENDROOT
BRANCH   1  10
ATOM     10  N   UNL     1     -45.641  39.985  27.401  1.00  0.00    -0.299 N 
ATOM     11  C   UNL     1     -44.703  41.643  26.192  1.00  0.00     0.033 A 
ATOM     12  C   UNL     1     -44.469  40.444  26.829  1.00  0.00     0.021 A 
ATOM     13  C   UNL     1     -46.084  41.936  26.313  1.00  0.00     0.071 A 
ATOM     14  H   UNL     1     -43.538  39.901  26.901  1.00  0.00     0.083 H 
ATOM     15  C   UNL     1     -46.637  40.916  27.091  1.00  0.00     0.150 A 
ATOM     16  C   UNL     1     -46.967  42.931  25.857  1.00  0.00     0.137 A 
ATOM     17  N   UNL     1     -47.928  40.859  27.475  1.00  0.00    -0.218 NA
ATOM     18  N   UNL     1     -48.259  42.887  26.229  1.00  0.00    -0.219 NA
ATOM     19  C   UNL     1     -48.661  41.878  27.014  1.00  0.00     0.120 A 
ATOM     20  H   UNL     1     -49.707  41.885  27.301  1.00  0.00     0.106 H 
BRANCH  11  21
ATOM     21  C   UNL     1     -43.685  42.438  25.512  1.00  0.00     0.095 A 
ATOM     22  N   UNL     1     -42.659  43.482  23.989  1.00  0.00    -0.275 N 
ATOM     23  C   UNL     1     -41.819  43.531  25.062  1.00  0.00     0.025 A 
ATOM     24  N   UNL     1     -43.800  42.812  24.232  1.00  0.00    -0.173 NA
ATOM     25  C   UNL     1     -42.455  42.846  26.071  1.00  0.00    -0.016 A 
ATOM     26  H   UNL     1     -40.859  44.026  25.019  1.00  0.00     0.084 H 
ATOM     27  H   UNL     1     -42.080  42.664  27.069  1.00  0.00     0.066 H 
BRANCH  22  28
ATOM     28  C   UNL     1     -42.435  44.048  22.682  1.00  0.00     0.030 C 
ATOM     29  H   UNL     1     -41.388  43.890  22.413  1.00  0.00     0.048 H 
ATOM     30  H   UNL     1     -43.095  43.544  21.970  1.00  0.00     0.048 H 
ATOM     31  H   UNL     1     -42.658  45.118  22.705  1.00  0.00     0.048 H 
ENDBRANCH  22  28
ENDBRANCH  11  21
BRANCH  16  32
ATOM     32  N   UNL     1     -46.619  43.967  24.999  1.00  0.00    -0.383 N 
ATOM     33  H   UNL     1     -47.188  44.799  25.114  1.00  0.00     0.158 HD
ATOM     34  H   UNL     1     -45.618  44.124  25.046  1.00  0.00     0.158 HD
ENDBRANCH  16  32
ENDBRANCH   1  10
BRANCH   5  35
ATOM     35  C   UNL     1     -47.871  35.572  28.292  1.00  0.00     0.115 C 
ATOM     36  H   UNL     1     -47.417  34.608  28.553  1.00  0.00     0.076 H 
ATOM     37  H   UNL     1     -48.774  35.660  28.908  1.00  0.00     0.076 H 
BRANCH  35  38
ATOM     38  O   UNL     1     -48.205  35.496  26.903  1.00  0.00    -0.489 OA
BRANCH  38  39
ATOM     39  C   UNL     1     -47.896  34.352  26.217  1.00  0.00     0.122 A 
ATOM     40  C   UNL     1     -46.681  34.397  25.537  1.00  0.00    -0.019 A 
ATOM     41  C   UNL     1     -48.685  33.204  26.131  1.00  0.00     0.007 A 
ATOM     42  C   UNL     1     -46.253  33.299  24.793  1.00  0.00    -0.049 A 
ATOM     43  H   UNL     1     -46.062  35.289  25.588  1.00  0.00     0.066 H 
ATOM     44  C   UNL     1     -48.283  32.095  25.392  1.00  0.00     0.076 A 
ATOM     45  H   UNL     1     -49.650  33.138  26.621  1.00  0.00     0.069 H 
ATOM     46  C   UNL     1     -47.052  32.149  24.721  1.00  0.00     0.001 A 
ATOM     47  H   UNL     1     -45.301  33.349  24.271  1.00  0.00     0.063 H 
ATOM     48  N   UNL     1     -49.080  31.012  25.343  1.00  0.00    -0.230 NA
ATOM     49  C   UNL     1     -46.665  31.024  23.992  1.00  0.00    -0.049 A 
ATOM     50  C   UNL     1     -48.713  29.924  24.618  1.00  0.00     0.136 A 
ATOM     51  C   UNL     1     -47.498  29.907  23.944  1.00  0.00    -0.018 A 
ATOM     52  H   UNL     1     -45.719  31.003  23.457  1.00  0.00     0.063 H 
ATOM     53  H   UNL     1     -47.151  29.049  23.383  1.00  0.00     0.066 H 
BRANCH  50  54
ATOM     54  N   UNL     1     -49.626  28.821  24.616  1.00  0.00    -0.292 N 
ATOM     55  C   UNL     1     -49.385  27.789  25.635  1.00  0.00     0.051 C 
ATOM     56  C   UNL     1     -50.826  28.805  23.900  1.00  0.00     0.254 C 
ATOM     57  C   UNL     1     -50.010  26.450  25.269  1.00  0.00     0.065 C 
ATOM     58  H   UNL     1     -49.822  28.159  26.570  1.00  0.00     0.052 H 
ATOM     59  H   UNL     1     -48.311  27.625  25.773  1.00  0.00     0.052 H 
ATOM     60  C   UNL     1     -51.667  27.517  24.035  1.00  0.00     0.126 C 
ATOM     61  O   UNL     1     -51.234  29.695  23.153  1.00  0.00    -0.272 OA
ATOM     62  O   UNL     1     -51.412  26.626  25.106  1.00  0.00    -0.370 OA
ATOM     63  H   UNL     1     -49.850  25.726  26.074  1.00  0.00     0.059 H 
ATOM     64  H   UNL     1     -49.579  26.037  24.349  1.00  0.00     0.059 H 
ATOM     65  H   UNL     1     -51.559  26.963  23.095  1.00  0.00     0.067 H 
ATOM     66  H   UNL     1     -52.715  27.821  24.119  1.00  0.00     0.067 H 
ENDBRANCH  50  54
ENDBRANCH  38  39
ENDBRANCH  35  38
ENDBRANCH   5  35
TORSDOF 8
ENDMDL
MODEL 3
REMARK VINA RESULT:     -11.2      2.881     13.084
REMARK SMILES Cn1ccc(-c2cn(-c3cncc(COc4ccc5ccc(N6CCOCC6=O)nc5c4)c3)c3ncnc(N)c23)n1
REMARK SMILES IDX 9 1 10 2 11 3 12 4 13 5 33 6 8 10 6 11 7 12 40 13 34 15
REMARK SMILES IDX 38 16 35 17 37 18 36 19 5 21 2 22 3 23 41 24 4 25 1 28 39 32
REMARK SMILES IDX 14 35 15 38 16 39 17 40 32 41 18 42 31 44 19 46 30 48 20 49
REMARK SMILES IDX 22 50 21 51 23 54 24 55 28 56 25 57 27 60 29 61 26 62
REMARK H PARENT 10 7 12 8 33 9 7 14 36 20 3 26 4 27 1 29 1 30 1 31 39 33 39 34
REMARK H PARENT 14 36 14 37 17 43 32 45 18 47 20 52 21 53 24 58 24 59 25 63
REMARK H PARENT 25 64 27 65 27 66
REMARK Flexibility Score: inf
ROOT
ATOM      1  C   UNL     1     -45.462  38.231  28.537  1.00  0.00     0.066 A 
ATOM      2  C   UNL     1     -45.514  37.875  29.881  1.00  0.00     0.051 A 
ATOM      3  N   UNL     1     -46.073  36.729  30.349  1.00  0.00    -0.262 NA
ATOM      4  C   UNL     1     -46.616  35.895  29.440  1.00  0.00     0.034 A 
ATOM      5  C   UNL     1     -46.641  36.148  28.076  1.00  0.00     0.010 A 
ATOM      6  C   UNL     1     -46.036  37.332  27.627  1.00  0.00    -0.028 A 
ATOM      7  H   UNL     1     -45.119  38.493  30.679  1.00  0.00     0.086 H 
ATOM      8  H   UNL     1     -47.046  34.989  29.859  1.00  0.00     0.084 H 
ATOM      9  H   UNL     1     -46.027  37.517  26.557  1.00  0.00     0.065 H 
ENDROOT
BRANCH   1  10
ATOM     10  N   UNL     1     -44.859  39.453  28.094  1.00  0.00    -0.299 N 
ATOM     11  C   UNL     1     -44.470  41.297  26.853  1.00  0.00     0.033 A 
ATOM     12  C   UNL     1     -45.284  40.197  27.009  1.00  0.00     0.021 A 
ATOM     13  C   UNL     1     -43.523  41.288  27.907  1.00  0.00     0.071 A 
ATOM     14  H   UNL     1     -46.136  39.911  26.409  1.00  0.00     0.083 H 
ATOM     15  C   UNL     1     -43.761  40.123  28.641  1.00  0.00     0.150 A 
ATOM     16  C   UNL     1     -42.485  42.119  28.363  1.00  0.00     0.137 A 
ATOM     17  N   UNL     1     -43.032  39.723  29.703  1.00  0.00    -0.218 NA
ATOM     18  N   UNL     1     -41.750  41.737  29.423  1.00  0.00    -0.219 NA
ATOM     19  C   UNL     1     -42.051  40.575  30.018  1.00  0.00     0.120 A 
ATOM     20  H   UNL     1     -41.427  40.296  30.862  1.00  0.00     0.106 H 
BRANCH  11  21
ATOM     21  C   UNL     1     -44.598  42.284  25.785  1.00  0.00     0.095 A 
ATOM     22  N   UNL     1     -44.098  43.547  24.168  1.00  0.00    -0.275 N 
ATOM     23  C   UNL     1     -45.390  43.866  24.464  1.00  0.00     0.025 A 
ATOM     24  N   UNL     1     -43.587  42.592  24.965  1.00  0.00    -0.173 NA
ATOM     25  C   UNL     1     -45.743  43.066  25.526  1.00  0.00    -0.016 A 
ATOM     26  H   UNL     1     -45.936  44.623  23.918  1.00  0.00     0.084 H 
ATOM     27  H   UNL     1     -46.693  43.055  26.042  1.00  0.00     0.066 H 
BRANCH  22  28
ATOM     28  C   UNL     1     -43.274  44.124  23.135  1.00  0.00     0.030 C 
ATOM     29  H   UNL     1     -43.887  44.259  22.240  1.00  0.00     0.048 H 
ATOM     30  H   UNL     1     -42.897  45.086  23.492  1.00  0.00     0.048 H 
ATOM     31  H   UNL     1     -42.439  43.453  22.918  1.00  0.00     0.048 H 
ENDBRANCH  22  28
ENDBRANCH  11  21
BRANCH  16  32
ATOM     32  N   UNL     1     -42.165  43.358  27.819  1.00  0.00    -0.383 N 
ATOM     33  H   UNL     1     -42.538  43.501  26.887  1.00  0.00     0.158 HD
ATOM     34  H   UNL     1     -42.389  44.088  28.487  1.00  0.00     0.158 HD
ENDBRANCH  16  32
ENDBRANCH   1  10
BRANCH   5  35
ATOM     35  C   UNL     1     -47.247  35.138  27.135  1.00  0.00     0.115 C 
ATOM     36  H   UNL     1     -48.298  35.012  27.423  1.00  0.00     0.076 H 
ATOM     37  H   UNL     1     -47.256  35.493  26.097  1.00  0.00     0.076 H 
BRANCH  35  38
ATOM     38  O   UNL     1     -46.647  33.843  27.228  1.00  0.00    -0.489 OA
BRANCH  38  39
ATOM     39  C   UNL     1     -46.929  32.920  26.258  1.00  0.00     0.122 A 
ATOM     40  C   UNL     1     -46.208  33.085  25.076  1.00  0.00    -0.019 A 
ATOM     41  C   UNL     1     -47.862  31.885  26.348  1.00  0.00     0.007 A 
ATOM     42  C   UNL     1     -46.407  32.216  24.006  1.00  0.00    -0.049 A 
ATOM     43  H   UNL     1     -45.486  33.894  24.989  1.00  0.00     0.066 H 
ATOM     44  C   UNL     1     -48.082  31.005  25.294  1.00  0.00     0.076 A 
ATOM     45  H   UNL     1     -48.464  31.739  27.239  1.00  0.00     0.069 H 
ATOM     46  C   UNL     1     -47.342  31.176  24.114  1.00  0.00     0.001 A 
ATOM     47  H   UNL     1     -45.834  32.357  23.093  1.00  0.00     0.063 H 
ATOM     48  N   UNL     1     -48.991  30.024  25.434  1.00  0.00    -0.230 NA
ATOM     49  C   UNL     1     -47.574  30.279  23.071  1.00  0.00    -0.049 A 
ATOM     50  C   UNL     1     -49.232  29.161  24.412  1.00  0.00     0.136 A 
ATOM     51  C   UNL     1     -48.520  29.266  23.223  1.00  0.00    -0.018 A 
ATOM     52  H   UNL     1     -47.026  30.356  22.135  1.00  0.00     0.063 H 
ATOM     53  H   UNL     1     -48.655  28.580  22.397  1.00  0.00     0.066 H 
BRANCH  50  54
ATOM     54  N   UNL     1     -50.221  28.154  24.646  1.00  0.00    -0.292 N 
ATOM     55  C   UNL     1     -49.961  27.252  25.778  1.00  0.00     0.051 C 
ATOM     56  C   UNL     1     -51.484  28.149  24.047  1.00  0.00     0.254 C 
ATOM     57  C   UNL     1     -50.719  25.937  25.662  1.00  0.00     0.065 C 
ATOM     58  H   UNL     1     -50.274  27.783  26.685  1.00  0.00     0.052 H 
ATOM     59  H   UNL     1     -48.894  27.013  25.845  1.00  0.00     0.052 H 
ATOM     60  C   UNL     1     -52.403  26.970  24.437  1.00  0.00     0.126 C 
ATOM     61  O   UNL     1     -51.894  28.962  23.219  1.00  0.00    -0.272 OA
ATOM     62  O   UNL     1     -52.112  26.213  25.598  1.00  0.00    -0.370 OA
ATOM     63  H   UNL     1     -50.536  25.317  26.545  1.00  0.00     0.059 H 
ATOM     64  H   UNL     1     -50.412  25.367  24.777  1.00  0.00     0.059 H 
ATOM     65  H   UNL     1     -52.430  26.287  23.579  1.00  0.00     0.067 H 
ATOM     66  H   UNL     1     -53.412  27.375  24.567  1.00  0.00     0.067 H 
ENDBRANCH  50  54
ENDBRANCH  38  39
ENDBRANCH  35  38
ENDBRANCH   5  35
TORSDOF 8
ENDMDL
MODEL 4
REMARK VINA RESULT:     -10.7      2.004      2.662
REMARK SMILES Cn1ccc(-c2cn(-c3cncc(COc4ccc5ccc(N6CCOCC6=O)nc5c4)c3)c3ncnc(N)c23)n1
REMARK SMILES IDX 9 1 10 2 11 3 12 4 13 5 33 6 8 10 6 11 7 12 40 13 34 15
REMARK SMILES IDX 38 16 35 17 37 18 36 19 5 21 2 22 3 23 41 24 4 25 1 28 39 32
REMARK SMILES IDX 14 35 15 38 16 39 17 40 32 41 18 42 31 44 19 46 30 48 20 49
REMARK SMILES IDX 22 50 21 51 23 54 24 55 28 56 25 57 27 60 29 61 26 62
REMARK H PARENT 10 7 12 8 33 9 7 14 36 20 3 26 4 27 1 29 1 30 1 31 39 33 39 34
REMARK H PARENT 14 36 14 37 17 43 32 45 18 47 20 52 21 53 24 58 24 59 25 63
REMARK H PARENT 25 64 27 65 27 66
REMARK Flexibility Score: inf
ROOT
ATOM      1  C   UNL     1     -48.421  32.814  25.937  1.00  0.00     0.066 A 
ATOM      2  C   UNL     1     -49.699  33.270  26.243  1.00  0.00     0.051 A 
ATOM      3  N   UNL     1     -49.976  34.515  26.711  1.00  0.00    -0.262 NA
ATOM      4  C   UNL     1     -48.933  35.348  26.895  1.00  0.00     0.034 A 
ATOM      5  C   UNL     1     -47.613  35.003  26.643  1.00  0.00     0.010 A 
ATOM      6  C   UNL     1     -47.366  33.717  26.141  1.00  0.00    -0.028 A 
ATOM      7  H   UNL     1     -50.591  32.663  26.143  1.00  0.00     0.086 H 
ATOM      8  H   UNL     1     -49.203  36.334  27.265  1.00  0.00     0.084 H 
ATOM      9  H   UNL     1     -46.337  33.454  25.913  1.00  0.00     0.065 H 
ENDROOT
BRANCH   1  10
ATOM     10  N   UNL     1     -48.181  31.490  25.444  1.00  0.00    -0.299 N 
ATOM     11  C   UNL     1     -48.228  29.239  25.304  1.00  0.00     0.033 A 
ATOM     12  C   UNL     1     -48.666  30.331  26.021  1.00  0.00     0.021 A 
ATOM     13  C   UNL     1     -47.482  29.716  24.198  1.00  0.00     0.071 A 
ATOM     14  H   UNL     1     -49.292  30.341  26.901  1.00  0.00     0.083 H 
ATOM     15  C   UNL     1     -47.438  31.108  24.323  1.00  0.00     0.150 A 
ATOM     16  C   UNL     1     -46.834  29.163  23.080  1.00  0.00     0.137 A 
ATOM     17  N   UNL     1     -46.775  31.932  23.488  1.00  0.00    -0.218 NA
ATOM     18  N   UNL     1     -46.170  29.972  22.235  1.00  0.00    -0.219 NA
ATOM     19  C   UNL     1     -46.166  31.288  22.486  1.00  0.00     0.120 A 
ATOM     20  H   UNL     1     -45.609  31.905  21.788  1.00  0.00     0.106 H 
BRANCH  11  21
ATOM     21  C   UNL     1     -48.514  27.849  25.647  1.00  0.00     0.095 A 
ATOM     22  N   UNL     1     -48.219  25.823  26.167  1.00  0.00    -0.275 N 
ATOM     23  C   UNL     1     -49.566  25.937  25.987  1.00  0.00     0.025 A 
ATOM     24  N   UNL     1     -47.552  26.972  25.956  1.00  0.00    -0.173 NA
ATOM     25  C   UNL     1     -49.790  27.247  25.633  1.00  0.00    -0.016 A 
ATOM     26  H   UNL     1     -50.236  25.097  26.111  1.00  0.00     0.084 H 
ATOM     27  H   UNL     1     -50.742  27.701  25.395  1.00  0.00     0.066 H 
BRANCH  22  28
ATOM     28  C   UNL     1     -47.488  24.636  26.534  1.00  0.00     0.030 C 
ATOM     29  H   UNL     1     -48.057  23.764  26.204  1.00  0.00     0.048 H 
ATOM     30  H   UNL     1     -46.511  24.667  26.043  1.00  0.00     0.048 H 
ATOM     31  H   UNL     1     -47.359  24.609  27.620  1.00  0.00     0.048 H 
ENDBRANCH  22  28
ENDBRANCH  11  21
BRANCH  16  32
ATOM     32  N   UNL     1     -46.852  27.815  22.741  1.00  0.00    -0.383 N 
ATOM     33  H   UNL     1     -47.783  27.416  22.708  1.00  0.00     0.158 HD
ATOM     34  H   UNL     1     -46.294  27.669  21.906  1.00  0.00     0.158 HD
ENDBRANCH  16  32
ENDBRANCH   1  10
BRANCH   5  35
ATOM     35  C   UNL     1     -46.517  36.017  26.852  1.00  0.00     0.115 C 
ATOM     36  H   UNL     1     -45.978  35.732  27.764  1.00  0.00     0.076 H 
ATOM     37  H   UNL     1     -45.777  36.001  26.042  1.00  0.00     0.076 H 
BRANCH  35  38
ATOM     38  O   UNL     1     -47.005  37.344  27.072  1.00  0.00    -0.489 OA
BRANCH  38  39
ATOM     39  C   UNL     1     -46.099  38.349  27.275  1.00  0.00     0.122 A 
ATOM     40  C   UNL     1     -45.215  38.125  28.329  1.00  0.00    -0.019 A 
ATOM     41  C   UNL     1     -46.012  39.541  26.553  1.00  0.00     0.007 A 
ATOM     42  C   UNL     1     -44.247  39.076  28.646  1.00  0.00    -0.049 A 
ATOM     43  H   UNL     1     -45.278  37.206  28.905  1.00  0.00     0.066 H 
ATOM     44  C   UNL     1     -45.057  40.508  26.851  1.00  0.00     0.076 A 
ATOM     45  H   UNL     1     -46.699  39.767  25.744  1.00  0.00     0.069 H 
ATOM     46  C   UNL     1     -44.166  40.265  27.908  1.00  0.00     0.001 A 
ATOM     47  H   UNL     1     -43.563  38.884  29.469  1.00  0.00     0.063 H 
ATOM     48  N   UNL     1     -45.016  41.638  26.123  1.00  0.00    -0.230 NA
ATOM     49  C   UNL     1     -43.213  41.245  28.185  1.00  0.00    -0.049 A 
ATOM     50  C   UNL     1     -44.101  42.602  26.405  1.00  0.00     0.136 A 
ATOM     51  C   UNL     1     -43.179  42.416  27.427  1.00  0.00    -0.018 A 
ATOM     52  H   UNL     1     -42.491  41.112  28.987  1.00  0.00     0.063 H 
ATOM     53  H   UNL     1     -42.411  43.141  27.663  1.00  0.00     0.066 H 
BRANCH  50  54
ATOM     54  N   UNL     1     -44.134  43.774  25.584  1.00  0.00    -0.292 N 
ATOM     55  C   UNL     1     -44.320  45.048  26.295  1.00  0.00     0.051 C 
ATOM     56  C   UNL     1     -43.759  43.793  24.238  1.00  0.00     0.254 C 
ATOM     57  C   UNL     1     -44.862  46.146  25.392  1.00  0.00     0.065 C 
ATOM     58  H   UNL     1     -43.337  45.339  26.685  1.00  0.00     0.052 H 
ATOM     59  H   UNL     1     -45.022  44.928  27.127  1.00  0.00     0.052 H 
ATOM     60  C   UNL     1     -43.870  45.164  23.534  1.00  0.00     0.126 C 
ATOM     61  O   UNL     1     -43.402  42.820  23.574  1.00  0.00    -0.272 OA
ATOM     62  O   UNL     1     -43.958  46.343  24.312  1.00  0.00    -0.370 OA
ATOM     63  H   UNL     1     -44.939  47.087  25.946  1.00  0.00     0.059 H 
ATOM     64  H   UNL     1     -45.857  45.899  25.003  1.00  0.00     0.059 H 
ATOM     65  H   UNL     1     -44.748  45.118  22.878  1.00  0.00     0.067 H 
ATOM     66  H   UNL     1     -42.987  45.271  22.895  1.00  0.00     0.067 H 
ENDBRANCH  50  54
ENDBRANCH  38  39
ENDBRANCH  35  38
ENDBRANCH   5  35
TORSDOF 8
ENDMDL
MODEL 5
REMARK VINA RESULT:     -10.6      1.872      2.899
REMARK SMILES Cn1ccc(-c2cn(-c3cncc(COc4ccc5ccc(N6CCOCC6=O)nc5c4)c3)c3ncnc(N)c23)n1
REMARK SMILES IDX 9 1 10 2 11 3 12 4 13 5 33 6 8 10 6 11 7 12 40 13 34 15
REMARK SMILES IDX 38 16 35 17 37 18 36 19 5 21 2 22 3 23 41 24 4 25 1 28 39 32
REMARK SMILES IDX 14 35 15 38 16 39 17 40 32 41 18 42 31 44 19 46 30 48 20 49
REMARK SMILES IDX 22 50 21 51 23 54 24 55 28 56 25 57 27 60 29 61 26 62
REMARK H PARENT 10 7 12 8 33 9 7 14 36 20 3 26 4 27 1 29 1 30 1 31 39 33 39 34
REMARK H PARENT 14 36 14 37 17 43 32 45 18 47 20 52 21 53 24 58 24 59 25 63
REMARK H PARENT 25 64 27 65 27 66
REMARK Flexibility Score: inf
ROOT
ATOM      1  C   UNL     1     -48.340  33.448  26.057  1.00  0.00     0.066 A 
ATOM      2  C   UNL     1     -49.531  34.056  26.441  1.00  0.00     0.051 A 
ATOM      3  N   UNL     1     -49.607  35.192  27.182  1.00  0.00    -0.262 NA
ATOM      4  C   UNL     1     -48.444  35.751  27.570  1.00  0.00     0.034 A 
ATOM      5  C   UNL     1     -47.195  35.229  27.265  1.00  0.00     0.010 A 
ATOM      6  C   UNL     1     -47.154  34.066  26.481  1.00  0.00    -0.028 A 
ATOM      7  H   UNL     1     -50.510  33.666  26.189  1.00  0.00     0.086 H 
ATOM      8  H   UNL     1     -48.553  36.660  28.155  1.00  0.00     0.084 H 
ATOM      9  H   UNL     1     -46.177  33.673  26.215  1.00  0.00     0.065 H 
ENDROOT
BRANCH   1  10
ATOM     10  N   UNL     1     -48.313  32.249  25.274  1.00  0.00    -0.299 N 
ATOM     11  C   UNL     1     -48.886  30.207  24.501  1.00  0.00     0.033 A 
ATOM     12  C   UNL     1     -49.216  31.208  25.389  1.00  0.00     0.021 A 
ATOM     13  C   UNL     1     -47.764  30.644  23.753  1.00  0.00     0.071 A 
ATOM     14  H   UNL     1     -50.041  31.231  26.086  1.00  0.00     0.083 H 
ATOM     15  C   UNL     1     -47.407  31.893  24.270  1.00  0.00     0.150 A 
ATOM     16  C   UNL     1     -46.990  30.159  22.684  1.00  0.00     0.137 A 
ATOM     17  N   UNL     1     -46.351  32.620  23.855  1.00  0.00    -0.218 NA
ATOM     18  N   UNL     1     -45.934  30.875  22.257  1.00  0.00    -0.219 NA
ATOM     19  C   UNL     1     -45.669  32.040  22.862  1.00  0.00     0.120 A 
ATOM     20  H   UNL     1     -44.802  32.581  22.496  1.00  0.00     0.106 H 
BRANCH  11  21
ATOM     21  C   UNL     1     -49.597  28.938  24.373  1.00  0.00     0.095 A 
ATOM     22  N   UNL     1     -50.842  27.421  23.593  1.00  0.00    -0.275 N 
ATOM     23  C   UNL     1     -50.450  26.949  24.811  1.00  0.00     0.025 A 
ATOM     24  N   UNL     1     -50.344  28.637  23.305  1.00  0.00    -0.173 NA
ATOM     25  C   UNL     1     -49.645  27.924  25.353  1.00  0.00    -0.016 A 
ATOM     26  H   UNL     1     -50.776  25.990  25.189  1.00  0.00     0.084 H 
ATOM     27  H   UNL     1     -49.164  27.905  26.322  1.00  0.00     0.066 H 
BRANCH  22  28
ATOM     28  C   UNL     1     -51.707  26.766  22.644  1.00  0.00     0.030 C 
ATOM     29  H   UNL     1     -52.662  27.296  22.625  1.00  0.00     0.048 H 
ATOM     30  H   UNL     1     -51.228  26.800  21.661  1.00  0.00     0.048 H 
ATOM     31  H   UNL     1     -51.862  25.728  22.948  1.00  0.00     0.048 H 
ENDBRANCH  22  28
ENDBRANCH  11  21
BRANCH  16  32
ATOM     32  N   UNL     1     -47.251  28.987  21.985  1.00  0.00    -0.383 N 
ATOM     33  H   UNL     1     -48.238  28.769  21.912  1.00  0.00     0.158 HD
ATOM     34  H   UNL     1     -46.749  29.000  21.103  1.00  0.00     0.158 HD
ENDBRANCH  16  32
ENDBRANCH   1  10
BRANCH   5  35
ATOM     35  C   UNL     1     -45.949  35.945  27.721  1.00  0.00     0.115 C 
ATOM     36  H   UNL     1     -45.311  35.205  28.219  1.00  0.00     0.076 H 
ATOM     37  H   UNL     1     -45.364  36.335  26.879  1.00  0.00     0.076 H 
BRANCH  35  38
ATOM     38  O   UNL     1     -46.203  36.970  28.686  1.00  0.00    -0.489 OA
BRANCH  38  39
ATOM     39  C   UNL     1     -45.298  37.988  28.813  1.00  0.00     0.122 A 
ATOM     40  C   UNL     1     -44.426  37.854  29.892  1.00  0.00    -0.019 A 
ATOM     41  C   UNL     1     -45.202  39.115  27.994  1.00  0.00     0.007 A 
ATOM     42  C   UNL     1     -43.460  38.826  30.139  1.00  0.00    -0.049 A 
ATOM     43  H   UNL     1     -44.498  36.986  30.543  1.00  0.00     0.066 H 
ATOM     44  C   UNL     1     -44.248  40.103  28.220  1.00  0.00     0.076 A 
ATOM     45  H   UNL     1     -45.878  39.272  27.162  1.00  0.00     0.069 H 
ATOM     46  C   UNL     1     -43.369  39.950  29.304  1.00  0.00     0.001 A 
ATOM     47  H   UNL     1     -42.786  38.705  30.983  1.00  0.00     0.063 H 
ATOM     48  N   UNL     1     -44.197  41.167  27.400  1.00  0.00    -0.230 NA
ATOM     49  C   UNL     1     -42.418  40.949  29.508  1.00  0.00    -0.049 A 
ATOM     50  C   UNL     1     -43.283  42.151  27.610  1.00  0.00     0.136 A 
ATOM     51  C   UNL     1     -42.373  42.051  28.655  1.00  0.00    -0.018 A 
ATOM     52  H   UNL     1     -41.705  40.882  30.326  1.00  0.00     0.063 H 
ATOM     53  H   UNL     1     -41.606  42.793  28.837  1.00  0.00     0.066 H 
BRANCH  50  54
ATOM     54  N   UNL     1     -43.306  43.249  26.693  1.00  0.00    -0.292 N 
ATOM     55  C   UNL     1     -42.955  42.930  25.301  1.00  0.00     0.051 C 
ATOM     56  C   UNL     1     -43.867  44.496  26.985  1.00  0.00     0.254 C 
ATOM     57  C   UNL     1     -42.491  44.152  24.521  1.00  0.00     0.065 C 
ATOM     58  H   UNL     1     -43.856  42.512  24.836  1.00  0.00     0.052 H 
ATOM     59  H   UNL     1     -42.149  42.190  25.265  1.00  0.00     0.052 H 
ATOM     60  C   UNL     1     -43.787  45.545  25.855  1.00  0.00     0.126 C 
ATOM     61  O   UNL     1     -44.365  44.829  28.061  1.00  0.00    -0.272 OA
ATOM     62  O   UNL     1     -43.529  45.124  24.528  1.00  0.00    -0.370 OA
ATOM     63  H   UNL     1     -42.288  43.880  23.480  1.00  0.00     0.059 H 
ATOM     64  H   UNL     1     -41.576  44.582  24.945  1.00  0.00     0.059 H 
ATOM     65  H   UNL     1     -43.015  46.269  26.143  1.00  0.00     0.067 H 
ATOM     66  H   UNL     1     -44.745  46.076  25.838  1.00  0.00     0.067 H 
ENDBRANCH  50  54
ENDBRANCH  38  39
ENDBRANCH  35  38
ENDBRANCH   5  35
TORSDOF 8
ENDMDL
MODEL 6
REMARK VINA RESULT:     -10.6      1.492      2.057
REMARK SMILES Cn1ccc(-c2cn(-c3cncc(COc4ccc5ccc(N6CCOCC6=O)nc5c4)c3)c3ncnc(N)c23)n1
REMARK SMILES IDX 9 1 10 2 11 3 12 4 13 5 33 6 8 10 6 11 7 12 40 13 34 15
REMARK SMILES IDX 38 16 35 17 37 18 36 19 5 21 2 22 3 23 41 24 4 25 1 28 39 32
REMARK SMILES IDX 14 35 15 38 16 39 17 40 32 41 18 42 31 44 19 46 30 48 20 49
REMARK SMILES IDX 22 50 21 51 23 54 24 55 28 56 25 57 27 60 29 61 26 62
REMARK H PARENT 10 7 12 8 33 9 7 14 36 20 3 26 4 27 1 29 1 30 1 31 39 33 39 34
REMARK H PARENT 14 36 14 37 17 43 32 45 18 47 20 52 21 53 24 58 24 59 25 63
REMARK H PARENT 25 64 27 65 27 66
REMARK Flexibility Score: inf
ROOT
ATOM      1  C   UNL     1     -47.920  32.488  25.536  1.00  0.00     0.066 A 
ATOM      2  C   UNL     1     -46.606  32.865  25.281  1.00  0.00     0.051 A 
ATOM      3  N   UNL     1     -46.068  34.058  25.644  1.00  0.00    -0.262 NA
ATOM      4  C   UNL     1     -46.875  34.926  26.285  1.00  0.00     0.034 A 
ATOM      5  C   UNL     1     -48.207  34.671  26.579  1.00  0.00     0.010 A 
ATOM      6  C   UNL     1     -48.723  33.421  26.208  1.00  0.00    -0.028 A 
ATOM      7  H   UNL     1     -45.894  32.238  24.756  1.00  0.00     0.086 H 
ATOM      8  H   UNL     1     -46.400  35.864  26.560  1.00  0.00     0.084 H 
ATOM      9  H   UNL     1     -49.756  33.207  26.465  1.00  0.00     0.065 H 
ENDROOT
BRANCH   1  10
ATOM     10  N   UNL     1     -48.441  31.215  25.133  1.00  0.00    -0.299 N 
ATOM     11  C   UNL     1     -48.935  29.014  25.184  1.00  0.00     0.033 A 
ATOM     12  C   UNL     1     -48.351  30.052  25.876  1.00  0.00     0.021 A 
ATOM     13  C   UNL     1     -49.466  29.539  23.980  1.00  0.00     0.071 A 
ATOM     14  H   UNL     1     -47.883  30.022  26.849  1.00  0.00     0.083 H 
ATOM     15  C   UNL     1     -49.120  30.893  23.954  1.00  0.00     0.150 A 
ATOM     16  C   UNL     1     -50.215  29.059  22.892  1.00  0.00     0.137 A 
ATOM     17  N   UNL     1     -49.402  31.737  22.941  1.00  0.00    -0.218 NA
ATOM     18  N   UNL     1     -50.507  29.889  21.874  1.00  0.00    -0.219 NA
ATOM     19  C   UNL     1     -50.083  31.157  21.947  1.00  0.00     0.120 A 
ATOM     20  H   UNL     1     -50.328  31.791  21.101  1.00  0.00     0.106 H 
BRANCH  11  21
ATOM     21  C   UNL     1     -48.990  27.630  25.648  1.00  0.00     0.095 A 
ATOM     22  N   UNL     1     -48.367  25.706  26.257  1.00  0.00    -0.275 N 
ATOM     23  C   UNL     1     -49.728  25.634  26.235  1.00  0.00     0.025 A 
ATOM     24  N   UNL     1     -47.890  26.910  25.894  1.00  0.00    -0.173 NA
ATOM     25  C   UNL     1     -50.166  26.872  25.828  1.00  0.00    -0.016 A 
ATOM     26  H   UNL     1     -50.261  24.728  26.493  1.00  0.00     0.084 H 
ATOM     27  H   UNL     1     -51.192  27.182  25.678  1.00  0.00     0.066 H 
BRANCH  22  28
ATOM     28  C   UNL     1     -47.445  24.655  26.609  1.00  0.00     0.030 C 
ATOM     29  H   UNL     1     -46.889  24.966  27.496  1.00  0.00     0.048 H 
ATOM     30  H   UNL     1     -48.019  23.747  26.813  1.00  0.00     0.048 H 
ATOM     31  H   UNL     1     -46.756  24.482  25.778  1.00  0.00     0.048 H 
ENDBRANCH  22  28
ENDBRANCH  11  21
BRANCH  16  32
ATOM     32  N   UNL     1     -50.728  27.771  22.789  1.00  0.00    -0.383 N 
ATOM     33  H   UNL     1     -51.537  27.607  23.378  1.00  0.00     0.158 HD
ATOM     34  H   UNL     1     -50.855  27.534  21.811  1.00  0.00     0.158 HD
ENDBRANCH  16  32
ENDBRANCH   1  10
BRANCH   5  35
ATOM     35  C   UNL     1     -49.021  35.697  27.327  1.00  0.00     0.115 C 
ATOM     36  H   UNL     1     -49.504  36.339  26.580  1.00  0.00     0.076 H 
ATOM     37  H   UNL     1     -49.833  35.239  27.906  1.00  0.00     0.076 H 
BRANCH  35  38
ATOM     38  O   UNL     1     -48.231  36.561  28.149  1.00  0.00    -0.489 OA
BRANCH  38  39
ATOM     39  C   UNL     1     -48.173  37.891  27.834  1.00  0.00     0.122 A 
ATOM     40  C   UNL     1     -49.373  38.578  28.007  1.00  0.00    -0.019 A 
ATOM     41  C   UNL     1     -47.058  38.577  27.351  1.00  0.00     0.007 A 
ATOM     42  C   UNL     1     -49.452  39.938  27.714  1.00  0.00    -0.049 A 
ATOM     43  H   UNL     1     -50.252  38.053  28.372  1.00  0.00     0.066 H 
ATOM     44  C   UNL     1     -47.109  39.934  27.048  1.00  0.00     0.076 A 
ATOM     45  H   UNL     1     -46.113  38.075  27.176  1.00  0.00     0.069 H 
ATOM     46  C   UNL     1     -48.321  40.617  27.236  1.00  0.00     0.001 A 
ATOM     47  H   UNL     1     -50.395  40.460  27.857  1.00  0.00     0.063 H 
ATOM     48  N   UNL     1     -46.005  40.548  26.587  1.00  0.00    -0.230 NA
ATOM     49  C   UNL     1     -48.349  41.977  26.932  1.00  0.00    -0.049 A 
ATOM     50  C   UNL     1     -46.036  41.870  26.272  1.00  0.00     0.136 A 
ATOM     51  C   UNL     1     -47.200  42.606  26.452  1.00  0.00    -0.018 A 
ATOM     52  H   UNL     1     -49.257  42.562  27.065  1.00  0.00     0.063 H 
ATOM     53  H   UNL     1     -47.260  43.667  26.247  1.00  0.00     0.066 H 
BRANCH  50  54
ATOM     54  N   UNL     1     -44.818  42.438  25.781  1.00  0.00    -0.292 N 
ATOM     55  C   UNL     1     -44.906  43.119  24.481  1.00  0.00     0.051 C 
ATOM     56  C   UNL     1     -43.665  42.596  26.556  1.00  0.00     0.254 C 
ATOM     57  C   UNL     1     -43.557  43.227  23.785  1.00  0.00     0.065 C 
ATOM     58  H   UNL     1     -45.306  44.122  24.675  1.00  0.00     0.052 H 
ATOM     59  H   UNL     1     -45.582  42.581  23.808  1.00  0.00     0.052 H 
ATOM     60  C   UNL     1     -42.457  43.233  25.833  1.00  0.00     0.126 C 
ATOM     61  O   UNL     1     -43.524  42.235  27.725  1.00  0.00    -0.272 OA
ATOM     62  O   UNL     1     -42.662  43.944  24.626  1.00  0.00    -0.370 OA
ATOM     63  H   UNL     1     -43.659  43.782  22.847  1.00  0.00     0.059 H 
ATOM     64  H   UNL     1     -43.138  42.240  23.553  1.00  0.00     0.059 H 
ATOM     65  H   UNL     1     -41.738  42.428  25.640  1.00  0.00     0.067 H 
ATOM     66  H   UNL     1     -41.990  43.930  26.536  1.00  0.00     0.067 H 
ENDBRANCH  50  54
ENDBRANCH  38  39
ENDBRANCH  35  38
ENDBRANCH   5  35
TORSDOF 8
ENDMDL
MODEL 7
REMARK VINA RESULT:     -10.3      3.001     12.563
REMARK SMILES Cn1ccc(-c2cn(-c3cncc(COc4ccc5ccc(N6CCOCC6=O)nc5c4)c3)c3ncnc(N)c23)n1
REMARK SMILES IDX 9 1 10 2 11 3 12 4 13 5 33 6 8 10 6 11 7 12 40 13 34 15
REMARK SMILES IDX 38 16 35 17 37 18 36 19 5 21 2 22 3 23 41 24 4 25 1 28 39 32
REMARK SMILES IDX 14 35 15 38 16 39 17 40 32 41 18 42 31 44 19 46 30 48 20 49
REMARK SMILES IDX 22 50 21 51 23 54 24 55 28 56 25 57 27 60 29 61 26 62
REMARK H PARENT 10 7 12 8 33 9 7 14 36 20 3 26 4 27 1 29 1 30 1 31 39 33 39 34
REMARK H PARENT 14 36 14 37 17 43 32 45 18 47 20 52 21 53 24 58 24 59 25 63
REMARK H PARENT 25 64 27 65 27 66
REMARK Flexibility Score: inf
ROOT
ATOM      1  C   UNL     1     -47.987  38.705  27.808  1.00  0.00     0.066 A 
ATOM      2  C   UNL     1     -49.178  39.282  28.237  1.00  0.00     0.051 A 
ATOM      3  N   UNL     1     -50.358  38.616  28.337  1.00  0.00    -0.262 NA
ATOM      4  C   UNL     1     -50.361  37.315  27.985  1.00  0.00     0.034 A 
ATOM      5  C   UNL     1     -49.242  36.635  27.525  1.00  0.00     0.010 A 
ATOM      6  C   UNL     1     -48.036  37.349  27.455  1.00  0.00    -0.028 A 
ATOM      7  H   UNL     1     -49.270  40.323  28.522  1.00  0.00     0.086 H 
ATOM      8  H   UNL     1     -51.325  36.823  28.086  1.00  0.00     0.084 H 
ATOM      9  H   UNL     1     -47.152  36.811  27.125  1.00  0.00     0.065 H 
ENDROOT
BRANCH   1  10
ATOM     10  N   UNL     1     -46.766  39.451  27.721  1.00  0.00    -0.299 N 
ATOM     11  C   UNL     1     -45.246  40.954  26.998  1.00  0.00     0.033 A 
ATOM     12  C   UNL     1     -46.524  40.471  26.819  1.00  0.00     0.021 A 
ATOM     13  C   UNL     1     -44.668  40.257  28.088  1.00  0.00     0.071 A 
ATOM     14  H   UNL     1     -47.265  40.800  26.105  1.00  0.00     0.083 H 
ATOM     15  C   UNL     1     -45.612  39.311  28.497  1.00  0.00     0.150 A 
ATOM     16  C   UNL     1     -43.462  40.298  28.810  1.00  0.00     0.137 A 
ATOM     17  N   UNL     1     -45.419  38.413  29.483  1.00  0.00    -0.218 NA
ATOM     18  N   UNL     1     -43.255  39.410  29.799  1.00  0.00    -0.219 NA
ATOM     19  C   UNL     1     -44.222  38.523  30.070  1.00  0.00     0.120 A 
ATOM     20  H   UNL     1     -44.011  37.817  30.867  1.00  0.00     0.106 H 
BRANCH  11  21
ATOM     21  C   UNL     1     -44.634  42.008  26.195  1.00  0.00     0.095 A 
ATOM     22  N   UNL     1     -43.896  43.902  25.620  1.00  0.00    -0.275 N 
ATOM     23  C   UNL     1     -43.758  43.128  24.505  1.00  0.00     0.025 A 
ATOM     24  N   UNL     1     -44.437  43.246  26.662  1.00  0.00    -0.173 NA
ATOM     25  C   UNL     1     -44.244  41.887  24.844  1.00  0.00    -0.016 A 
ATOM     26  H   UNL     1     -43.347  43.515  23.583  1.00  0.00     0.084 H 
ATOM     27  H   UNL     1     -44.310  41.018  24.204  1.00  0.00     0.066 H 
BRANCH  22  28
ATOM     28  C   UNL     1     -43.539  45.291  25.764  1.00  0.00     0.030 C 
ATOM     29  H   UNL     1     -42.963  45.593  24.886  1.00  0.00     0.048 H 
ATOM     30  H   UNL     1     -44.460  45.877  25.841  1.00  0.00     0.048 H 
ATOM     31  H   UNL     1     -42.938  45.421  26.668  1.00  0.00     0.048 H 
ENDBRANCH  22  28
ENDBRANCH  11  21
BRANCH  16  32
ATOM     32  N   UNL     1     -42.449  41.228  28.609  1.00  0.00    -0.383 N 
ATOM     33  H   UNL     1     -41.556  40.812  28.373  1.00  0.00     0.158 HD
ATOM     34  H   UNL     1     -42.770  41.945  27.967  1.00  0.00     0.158 HD
ENDBRANCH  16  32
ENDBRANCH   1  10
BRANCH   5  35
ATOM     35  C   UNL     1     -49.341  35.170  27.183  1.00  0.00     0.115 C 
ATOM     36  H   UNL     1     -50.015  34.708  27.914  1.00  0.00     0.076 H 
ATOM     37  H   UNL     1     -49.798  35.005  26.199  1.00  0.00     0.076 H 
BRANCH  35  38
ATOM     38  O   UNL     1     -48.094  34.476  27.290  1.00  0.00    -0.489 OA
BRANCH  38  39
ATOM     39  C   UNL     1     -47.789  33.531  26.349  1.00  0.00     0.122 A 
ATOM     40  C   UNL     1     -46.613  33.779  25.642  1.00  0.00    -0.019 A 
ATOM     41  C   UNL     1     -48.545  32.399  26.040  1.00  0.00     0.007 A 
ATOM     42  C   UNL     1     -46.193  32.897  24.650  1.00  0.00    -0.049 A 
ATOM     43  H   UNL     1     -46.021  34.663  25.867  1.00  0.00     0.066 H 
ATOM     44  C   UNL     1     -48.149  31.504  25.051  1.00  0.00     0.076 A 
ATOM     45  H   UNL     1     -49.480  32.184  26.546  1.00  0.00     0.069 H 
ATOM     46  C   UNL     1     -46.958  31.759  24.354  1.00  0.00     0.001 A 
ATOM     47  H   UNL     1     -45.272  33.103  24.110  1.00  0.00     0.063 H 
ATOM     48  N   UNL     1     -48.914  30.427  24.794  1.00  0.00    -0.230 NA
ATOM     49  C   UNL     1     -46.577  30.846  23.372  1.00  0.00    -0.049 A 
ATOM     50  C   UNL     1     -48.553  29.547  23.824  1.00  0.00     0.136 A 
ATOM     51  C   UNL     1     -47.377  29.733  23.109  1.00  0.00    -0.018 A 
ATOM     52  H   UNL     1     -45.660  30.986  22.804  1.00  0.00     0.063 H 
ATOM     53  H   UNL     1     -47.034  29.040  22.353  1.00  0.00     0.066 H 
BRANCH  50  54
ATOM     54  N   UNL     1     -49.430  28.436  23.613  1.00  0.00    -0.292 N 
ATOM     55  C   UNL     1     -49.850  27.712  24.822  1.00  0.00     0.051 C 
ATOM     56  C   UNL     1     -50.082  28.177  22.403  1.00  0.00     0.254 C 
ATOM     57  C   UNL     1     -50.315  26.294  24.521  1.00  0.00     0.065 C 
ATOM     58  H   UNL     1     -50.672  28.286  25.266  1.00  0.00     0.052 H 
ATOM     59  H   UNL     1     -49.023  27.643  25.537  1.00  0.00     0.052 H 
ATOM     60  C   UNL     1     -50.985  26.924  22.387  1.00  0.00     0.126 C 
ATOM     61  O   UNL     1     -49.958  28.824  21.363  1.00  0.00    -0.272 OA
ATOM     62  O   UNL     1     -51.406  26.351  23.611  1.00  0.00    -0.370 OA
ATOM     63  H   UNL     1     -50.664  25.809  25.439  1.00  0.00     0.059 H 
ATOM     64  H   UNL     1     -49.510  25.682  24.098  1.00  0.00     0.059 H 
ATOM     65  H   UNL     1     -50.457  26.155  21.811  1.00  0.00     0.067 H 
ATOM     66  H   UNL     1     -51.892  27.187  21.832  1.00  0.00     0.067 H 
ENDBRANCH  50  54
ENDBRANCH  38  39
ENDBRANCH  35  38
ENDBRANCH   5  35
TORSDOF 8
ENDMDL
