MODEL 1
REMARK VINA RESULT:     -10.1      0.000      0.000
REMARK SMILES Cn1ccc(-c2cn(-c3cncc(COC(=O)Nc4cccc(Br)n4)c3)c3ncnc(N)c23)n1
REMARK SMILES IDX 9 1 10 2 11 3 12 4 13 5 26 6 8 10 6 11 7 12 33 13 27 15
REMARK SMILES IDX 31 16 28 17 30 18 29 19 5 21 2 22 3 23 34 24 4 25 1 28 32 32
REMARK SMILES IDX 14 35 15 38 16 39 17 40 18 41 19 43 20 44 25 45 21 46 23 48
REMARK SMILES IDX 22 49 24 51
REMARK H PARENT 10 7 12 8 26 9 7 14 29 20 3 26 4 27 1 29 1 30 1 31 32 33 32 34
REMARK H PARENT 14 36 14 37 18 42 20 47 21 50 22 52
REMARK Flexibility Score: inf
ROOT
ATOM      1  C   UNL     1     -47.107  37.127  27.275  1.00  0.00     0.066 A 
ATOM      2  C   UNL     1     -48.412  37.220  27.747  1.00  0.00     0.051 A 
ATOM      3  N   UNL     1     -49.335  36.228  27.644  1.00  0.00    -0.262 NA
ATOM      4  C   UNL     1     -48.951  35.085  27.041  1.00  0.00     0.034 A 
ATOM      5  C   UNL     1     -47.683  34.885  26.515  1.00  0.00     0.010 A 
ATOM      6  C   UNL     1     -46.750  35.923  26.650  1.00  0.00    -0.028 A 
ATOM      7  H   UNL     1     -48.805  38.092  28.256  1.00  0.00     0.086 H 
ATOM      8  H   UNL     1     -49.715  34.312  26.994  1.00  0.00     0.084 H 
ATOM      9  H   UNL     1     -45.757  35.758  26.245  1.00  0.00     0.065 H 
ENDROOT
BRANCH   1  10
ATOM     10  N   UNL     1     -46.165  38.198  27.418  1.00  0.00    -0.299 N 
ATOM     11  C   UNL     1     -45.009  40.080  26.954  1.00  0.00     0.033 A 
ATOM     12  C   UNL     1     -46.019  39.246  26.528  1.00  0.00     0.021 A 
ATOM     13  C   UNL     1     -44.530  39.582  28.191  1.00  0.00     0.071 A 
ATOM     14  H   UNL     1     -46.615  39.332  25.631  1.00  0.00     0.083 H 
ATOM     15  C   UNL     1     -45.234  38.401  28.441  1.00  0.00     0.150 A 
ATOM     16  C   UNL     1     -43.594  39.975  29.165  1.00  0.00     0.137 A 
ATOM     17  N   UNL     1     -45.048  37.610  29.517  1.00  0.00    -0.218 NA
ATOM     18  N   UNL     1     -43.390  39.192  30.239  1.00  0.00    -0.219 NA
ATOM     19  C   UNL     1     -44.111  38.068  30.352  1.00  0.00     0.120 A 
ATOM     20  H   UNL     1     -43.912  37.461  31.229  1.00  0.00     0.106 H 
BRANCH  11  21
ATOM     21  C   UNL     1     -44.547  41.262  26.234  1.00  0.00     0.095 A 
ATOM     22  N   UNL     1     -43.262  42.761  25.481  1.00  0.00    -0.275 N 
ATOM     23  C   UNL     1     -44.506  43.138  25.067  1.00  0.00     0.025 A 
ATOM     24  N   UNL     1     -43.259  41.627  26.206  1.00  0.00    -0.173 NA
ATOM     25  C   UNL     1     -45.370  42.185  25.555  1.00  0.00    -0.016 A 
ATOM     26  H   UNL     1     -44.673  44.033  24.485  1.00  0.00     0.084 H 
ATOM     27  H   UNL     1     -46.445  42.165  25.440  1.00  0.00     0.066 H 
BRANCH  22  28
ATOM     28  C   UNL     1     -42.017  43.444  25.228  1.00  0.00     0.030 C 
ATOM     29  H   UNL     1     -41.882  44.238  25.967  1.00  0.00     0.048 H 
ATOM     30  H   UNL     1     -42.058  43.873  24.224  1.00  0.00     0.048 H 
ATOM     31  H   UNL     1     -41.204  42.719  25.305  1.00  0.00     0.048 H 
ENDBRANCH  22  28
ENDBRANCH  11  21
BRANCH  16  32
ATOM     32  N   UNL     1     -42.868  41.159  29.132  1.00  0.00    -0.383 N 
ATOM     33  H   UNL     1     -42.133  41.085  28.436  1.00  0.00     0.158 HD
ATOM     34  H   UNL     1     -42.560  41.474  30.045  1.00  0.00     0.158 HD
ENDBRANCH  16  32
ENDBRANCH   1  10
BRANCH   5  35
ATOM     35  C   UNL     1     -47.320  33.583  25.863  1.00  0.00     0.120 C 
ATOM     36  H   UNL     1     -46.249  33.392  25.993  1.00  0.00     0.076 H 
ATOM     37  H   UNL     1     -47.484  33.613  24.778  1.00  0.00     0.076 H 
BRANCH  35  38
ATOM     38  O   UNL     1     -48.023  32.515  26.512  1.00  0.00    -0.444 OA
BRANCH  38  39
ATOM     39  C   UNL     1     -48.577  31.587  25.683  1.00  0.00     0.413 C 
ATOM     40  O   UNL     1     -49.200  31.869  24.674  1.00  0.00    -0.224 OA
ATOM     41  N   UNL     1     -48.302  30.358  26.203  1.00  0.00    -0.275 N 
ATOM     42  H   UNL     1     -47.792  30.375  27.072  1.00  0.00     0.175 HD
BRANCH  41  43
ATOM     43  C   UNL     1     -48.680  29.130  25.662  1.00  0.00     0.136 A 
ATOM     44  C   UNL     1     -48.668  28.029  26.515  1.00  0.00    -0.019 A 
ATOM     45  N   UNL     1     -49.033  29.028  24.371  1.00  0.00    -0.224 NA
ATOM     46  C   UNL     1     -49.037  26.781  26.017  1.00  0.00    -0.056 A 
ATOM     47  H   UNL     1     -48.378  28.125  27.557  1.00  0.00     0.066 H 
ATOM     48  C   UNL     1     -49.390  27.813  23.905  1.00  0.00     0.108 A 
ATOM     49  C   UNL     1     -49.408  26.668  24.684  1.00  0.00    -0.029 A 
ATOM     50  H   UNL     1     -49.037  25.908  26.664  1.00  0.00     0.063 H 
ATOM     51  Br  UNL     1     -49.887  27.682  22.080  1.00  0.00    -0.029 Br
ATOM     52  H   UNL     1     -49.701  25.709  24.271  1.00  0.00     0.065 H 
ENDBRANCH  41  43
ENDBRANCH  38  39
ENDBRANCH  35  38
ENDBRANCH   5  35
TORSDOF 8
ENDMDL
MODEL 2
REMARK VINA RESULT:     -10.0      1.881      2.626
REMARK SMILES Cn1ccc(-c2cn(-c3cncc(COC(=O)Nc4cccc(Br)n4)c3)c3ncnc(N)c23)n1
REMARK SMILES IDX 9 1 10 2 11 3 12 4 13 5 26 6 8 10 6 11 7 12 33 13 27 15
REMARK SMILES IDX 31 16 28 17 30 18 29 19 5 21 2 22 3 23 34 24 4 25 1 28 32 32
REMARK SMILES IDX 14 35 15 38 16 39 17 40 18 41 19 43 20 44 25 45 21 46 23 48
REMARK SMILES IDX 22 49 24 51
REMARK H PARENT 10 7 12 8 26 9 7 14 29 20 3 26 4 27 1 29 1 30 1 31 32 33 32 34
REMARK H PARENT 14 36 14 37 18 42 20 47 21 50 22 52
REMARK Flexibility Score: inf
ROOT
ATOM      1  C   UNL     1     -45.893  38.232  27.977  1.00  0.00     0.066 A 
ATOM      2  C   UNL     1     -46.093  37.839  29.295  1.00  0.00     0.051 A 
ATOM      3  N   UNL     1     -46.689  36.674  29.664  1.00  0.00    -0.262 NA
ATOM      4  C   UNL     1     -47.111  35.856  28.680  1.00  0.00     0.034 A 
ATOM      5  C   UNL     1     -46.983  36.151  27.330  1.00  0.00     0.010 A 
ATOM      6  C   UNL     1     -46.351  37.354  26.983  1.00  0.00    -0.028 A 
ATOM      7  H   UNL     1     -45.776  38.423  30.150  1.00  0.00     0.086 H 
ATOM      8  H   UNL     1     -47.567  34.928  29.019  1.00  0.00     0.084 H 
ATOM      9  H   UNL     1     -46.245  37.576  25.926  1.00  0.00     0.065 H 
ENDROOT
BRANCH   1  10
ATOM     10  N   UNL     1     -45.249  39.466  27.637  1.00  0.00    -0.299 N 
ATOM     11  C   UNL     1     -44.779  41.380  26.536  1.00  0.00     0.033 A 
ATOM     12  C   UNL     1     -45.625  40.295  26.596  1.00  0.00     0.021 A 
ATOM     13  C   UNL     1     -43.864  41.274  27.612  1.00  0.00     0.071 A 
ATOM     14  H   UNL     1     -46.451  40.061  25.939  1.00  0.00     0.083 H 
ATOM     15  C   UNL     1     -44.151  40.069  28.258  1.00  0.00     0.150 A 
ATOM     16  C   UNL     1     -42.822  42.048  28.156  1.00  0.00     0.137 A 
ATOM     17  N   UNL     1     -43.478  39.592  29.325  1.00  0.00    -0.218 NA
ATOM     18  N   UNL     1     -42.137  41.581  29.214  1.00  0.00    -0.219 NA
ATOM     19  C   UNL     1     -42.490  40.395  29.729  1.00  0.00     0.120 A 
ATOM     20  H   UNL     1     -41.908  40.051  30.578  1.00  0.00     0.106 H 
BRANCH  11  21
ATOM     21  C   UNL     1     -44.849  42.435  25.530  1.00  0.00     0.095 A 
ATOM     22  N   UNL     1     -44.288  43.726  23.955  1.00  0.00    -0.275 N 
ATOM     23  C   UNL     1     -45.521  44.168  24.335  1.00  0.00     0.025 A 
ATOM     24  N   UNL     1     -43.848  42.679  24.676  1.00  0.00    -0.173 NA
ATOM     25  C   UNL     1     -45.910  43.352  25.373  1.00  0.00    -0.016 A 
ATOM     26  H   UNL     1     -46.005  45.009  23.860  1.00  0.00     0.084 H 
ATOM     27  H   UNL     1     -46.829  43.415  25.939  1.00  0.00     0.066 H 
BRANCH  22  28
ATOM     28  C   UNL     1     -43.457  44.266  22.907  1.00  0.00     0.030 C 
ATOM     29  H   UNL     1     -42.963  45.173  23.266  1.00  0.00     0.048 H 
ATOM     30  H   UNL     1     -44.093  44.502  22.050  1.00  0.00     0.048 H 
ATOM     31  H   UNL     1     -42.710  43.516  22.639  1.00  0.00     0.048 H 
ENDBRANCH  22  28
ENDBRANCH  11  21
BRANCH  16  32
ATOM     32  N   UNL     1     -42.455  43.310  27.706  1.00  0.00    -0.383 N 
ATOM     33  H   UNL     1     -43.235  43.949  27.823  1.00  0.00     0.158 HD
ATOM     34  H   UNL     1     -42.040  43.309  26.781  1.00  0.00     0.158 HD
ENDBRANCH  16  32
ENDBRANCH   1  10
BRANCH   5  35
ATOM     35  C   UNL     1     -47.469  35.189  26.285  1.00  0.00     0.120 C 
ATOM     36  H   UNL     1     -46.631  34.882  25.649  1.00  0.00     0.076 H 
ATOM     37  H   UNL     1     -48.195  35.658  25.609  1.00  0.00     0.076 H 
BRANCH  35  38
ATOM     38  O   UNL     1     -47.971  34.008  26.924  1.00  0.00    -0.444 OA
BRANCH  38  39
ATOM     39  C   UNL     1     -47.384  32.839  26.544  1.00  0.00     0.413 C 
ATOM     40  O   UNL     1     -46.642  32.192  27.263  1.00  0.00    -0.224 OA
ATOM     41  N   UNL     1     -47.781  32.578  25.268  1.00  0.00    -0.275 N 
ATOM     42  H   UNL     1     -48.378  33.280  24.862  1.00  0.00     0.175 HD
BRANCH  41  43
ATOM     43  C   UNL     1     -47.415  31.473  24.500  1.00  0.00     0.136 A 
ATOM     44  C   UNL     1     -46.346  31.633  23.622  1.00  0.00    -0.019 A 
ATOM     45  N   UNL     1     -48.079  30.311  24.610  1.00  0.00    -0.224 NA
ATOM     46  C   UNL     1     -45.948  30.556  22.834  1.00  0.00    -0.056 A 
ATOM     47  H   UNL     1     -45.819  32.578  23.542  1.00  0.00     0.066 H 
ATOM     48  C   UNL     1     -47.679  29.277  23.842  1.00  0.00     0.108 A 
ATOM     49  C   UNL     1     -46.626  29.350  22.945  1.00  0.00    -0.029 A 
ATOM     50  H   UNL     1     -45.115  30.657  22.144  1.00  0.00     0.063 H 
ATOM     51  Br  UNL     1     -48.625  27.641  24.006  1.00  0.00    -0.029 Br
ATOM     52  H   UNL     1     -46.336  28.495  22.345  1.00  0.00     0.065 H 
ENDBRANCH  41  43
ENDBRANCH  38  39
ENDBRANCH  35  38
ENDBRANCH   5  35
TORSDOF 8
ENDMDL
MODEL 3
REMARK VINA RESULT:      -9.7      3.993     11.578
REMARK SMILES Cn1ccc(-c2cn(-c3cncc(COC(=O)Nc4cccc(Br)n4)c3)c3ncnc(N)c23)n1
REMARK SMILES IDX 9 1 10 2 11 3 12 4 13 5 26 6 8 10 6 11 7 12 33 13 27 15
REMARK SMILES IDX 31 16 28 17 30 18 29 19 5 21 2 22 3 23 34 24 4 25 1 28 32 32
REMARK SMILES IDX 14 35 15 38 16 39 17 40 18 41 19 43 20 44 25 45 21 46 23 48
REMARK SMILES IDX 22 49 24 51
REMARK H PARENT 10 7 12 8 26 9 7 14 29 20 3 26 4 27 1 29 1 30 1 31 32 33 32 34
REMARK H PARENT 14 36 14 37 18 42 20 47 21 50 22 52
REMARK Flexibility Score: inf
ROOT
ATOM      1  C   UNL     1     -47.221  32.856  26.388  1.00  0.00     0.066 A 
ATOM      2  C   UNL     1     -46.414  32.571  27.483  1.00  0.00     0.051 A 
ATOM      3  N   UNL     1     -46.007  33.492  28.395  1.00  0.00    -0.262 NA
ATOM      4  C   UNL     1     -46.416  34.764  28.214  1.00  0.00     0.034 A 
ATOM      5  C   UNL     1     -47.207  35.171  27.149  1.00  0.00     0.010 A 
ATOM      6  C   UNL     1     -47.621  34.192  26.234  1.00  0.00    -0.028 A 
ATOM      7  H   UNL     1     -46.047  31.578  27.716  1.00  0.00     0.086 H 
ATOM      8  H   UNL     1     -46.082  35.466  28.975  1.00  0.00     0.084 H 
ATOM      9  H   UNL     1     -48.248  34.514  25.408  1.00  0.00     0.065 H 
ENDROOT
BRANCH   1  10
ATOM     10  N   UNL     1     -47.634  31.846  25.459  1.00  0.00    -0.299 N 
ATOM     11  C   UNL     1     -48.728  30.061  24.616  1.00  0.00     0.033 A 
ATOM     12  C   UNL     1     -48.598  30.887  25.710  1.00  0.00     0.021 A 
ATOM     13  C   UNL     1     -47.859  30.542  23.605  1.00  0.00     0.071 A 
ATOM     14  H   UNL     1     -49.119  30.822  26.654  1.00  0.00     0.083 H 
ATOM     15  C   UNL     1     -47.170  31.624  24.159  1.00  0.00     0.150 A 
ATOM     16  C   UNL     1     -47.562  30.224  22.267  1.00  0.00     0.137 A 
ATOM     17  N   UNL     1     -46.226  32.342  23.517  1.00  0.00    -0.218 NA
ATOM     18  N   UNL     1     -46.617  30.925  21.616  1.00  0.00    -0.219 NA
ATOM     19  C   UNL     1     -46.005  31.925  22.267  1.00  0.00     0.120 A 
ATOM     20  H   UNL     1     -45.245  32.462  21.709  1.00  0.00     0.106 H 
BRANCH  11  21
ATOM     21  C   UNL     1     -49.619  28.907  24.545  1.00  0.00     0.095 A 
ATOM     22  N   UNL     1     -51.240  27.673  23.988  1.00  0.00    -0.275 N 
ATOM     23  C   UNL     1     -50.587  26.963  24.953  1.00  0.00     0.025 A 
ATOM     24  N   UNL     1     -50.679  28.868  23.728  1.00  0.00    -0.173 NA
ATOM     25  C   UNL     1     -49.530  27.750  25.347  1.00  0.00    -0.016 A 
ATOM     26  H   UNL     1     -50.924  25.990  25.280  1.00  0.00     0.084 H 
ATOM     27  H   UNL     1     -48.800  27.519  26.112  1.00  0.00     0.066 H 
BRANCH  22  28
ATOM     28  C   UNL     1     -52.424  27.274  23.267  1.00  0.00     0.030 C 
ATOM     29  H   UNL     1     -52.752  28.095  22.624  1.00  0.00     0.048 H 
ATOM     30  H   UNL     1     -53.205  27.036  23.994  1.00  0.00     0.048 H 
ATOM     31  H   UNL     1     -52.181  26.399  22.661  1.00  0.00     0.048 H 
ENDBRANCH  22  28
ENDBRANCH  11  21
BRANCH  16  32
ATOM     32  N   UNL     1     -48.208  29.244  21.524  1.00  0.00    -0.383 N 
ATOM     33  H   UNL     1     -47.518  28.619  21.120  1.00  0.00     0.158 HD
ATOM     34  H   UNL     1     -48.887  29.612  20.867  1.00  0.00     0.158 HD
ENDBRANCH  16  32
ENDBRANCH   1  10
BRANCH   5  35
ATOM     35  C   UNL     1     -47.635  36.603  27.014  1.00  0.00     0.120 C 
ATOM     36  H   UNL     1     -48.704  36.648  26.782  1.00  0.00     0.076 H 
ATOM     37  H   UNL     1     -47.131  37.099  26.175  1.00  0.00     0.076 H 
BRANCH  35  38
ATOM     38  O   UNL     1     -47.443  37.275  28.265  1.00  0.00    -0.444 OA
BRANCH  38  39
ATOM     39  C   UNL     1     -46.984  38.555  28.182  1.00  0.00     0.413 C 
ATOM     40  O   UNL     1     -47.666  39.534  28.433  1.00  0.00    -0.224 OA
ATOM     41  N   UNL     1     -45.685  38.498  27.777  1.00  0.00    -0.275 N 
ATOM     42  H   UNL     1     -45.341  37.568  27.599  1.00  0.00     0.175 HD
BRANCH  41  43
ATOM     43  C   UNL     1     -44.837  39.586  27.572  1.00  0.00     0.136 A 
ATOM     44  C   UNL     1     -45.007  40.312  26.395  1.00  0.00    -0.019 A 
ATOM     45  N   UNL     1     -43.897  39.904  28.476  1.00  0.00    -0.224 NA
ATOM     46  C   UNL     1     -44.181  41.405  26.147  1.00  0.00    -0.056 A 
ATOM     47  H   UNL     1     -45.769  40.042  25.671  1.00  0.00     0.066 H 
ATOM     48  C   UNL     1     -43.107  40.968  28.222  1.00  0.00     0.108 A 
ATOM     49  C   UNL     1     -43.209  41.744  27.080  1.00  0.00    -0.029 A 
ATOM     50  H   UNL     1     -44.296  41.988  25.237  1.00  0.00     0.063 H 
ATOM     51  Br  UNL     1     -41.784  41.408  29.507  1.00  0.00    -0.029 Br
ATOM     52  H   UNL     1     -42.554  42.591  26.912  1.00  0.00     0.065 H 
ENDBRANCH  41  43
ENDBRANCH  38  39
ENDBRANCH  35  38
ENDBRANCH   5  35
TORSDOF 8
ENDMDL
MODEL 4
REMARK VINA RESULT:      -9.5      2.115      3.233
REMARK SMILES Cn1ccc(-c2cn(-c3cncc(COC(=O)Nc4cccc(Br)n4)c3)c3ncnc(N)c23)n1
REMARK SMILES IDX 9 1 10 2 11 3 12 4 13 5 26 6 8 10 6 11 7 12 33 13 27 15
REMARK SMILES IDX 31 16 28 17 30 18 29 19 5 21 2 22 3 23 34 24 4 25 1 28 32 32
REMARK SMILES IDX 14 35 15 38 16 39 17 40 18 41 19 43 20 44 25 45 21 46 23 48
REMARK SMILES IDX 22 49 24 51
REMARK H PARENT 10 7 12 8 26 9 7 14 29 20 3 26 4 27 1 29 1 30 1 31 32 33 32 34
REMARK H PARENT 14 36 14 37 18 42 20 47 21 50 22 52
REMARK Flexibility Score: inf
ROOT
ATOM      1  C   UNL     1     -46.623  35.549  27.247  1.00  0.00     0.066 A 
ATOM      2  C   UNL     1     -46.339  34.779  28.369  1.00  0.00     0.051 A 
ATOM      3  N   UNL     1     -46.168  33.431  28.350  1.00  0.00    -0.262 NA
ATOM      4  C   UNL     1     -46.286  32.809  27.160  1.00  0.00     0.034 A 
ATOM      5  C   UNL     1     -46.585  33.469  25.977  1.00  0.00     0.010 A 
ATOM      6  C   UNL     1     -46.742  34.862  26.029  1.00  0.00    -0.028 A 
ATOM      7  H   UNL     1     -46.214  35.192  29.363  1.00  0.00     0.086 H 
ATOM      8  H   UNL     1     -46.125  31.734  27.186  1.00  0.00     0.084 H 
ATOM      9  H   UNL     1     -46.967  35.374  25.099  1.00  0.00     0.065 H 
ENDROOT
BRANCH   1  10
ATOM     10  N   UNL     1     -46.785  36.971  27.316  1.00  0.00    -0.299 N 
ATOM     11  C   UNL     1     -46.277  39.169  27.230  1.00  0.00     0.033 A 
ATOM     12  C   UNL     1     -45.792  37.894  27.041  1.00  0.00     0.021 A 
ATOM     13  C   UNL     1     -47.646  39.062  27.582  1.00  0.00     0.071 A 
ATOM     14  H   UNL     1     -44.792  37.601  26.753  1.00  0.00     0.083 H 
ATOM     15  C   UNL     1     -47.929  37.696  27.662  1.00  0.00     0.150 A 
ATOM     16  C   UNL     1     -48.715  39.943  27.834  1.00  0.00     0.137 A 
ATOM     17  N   UNL     1     -49.128  37.179  27.998  1.00  0.00    -0.218 NA
ATOM     18  N   UNL     1     -49.914  39.443  28.179  1.00  0.00    -0.219 NA
ATOM     19  C   UNL     1     -50.052  38.111  28.248  1.00  0.00     0.120 A 
ATOM     20  H   UNL     1     -51.034  37.748  28.536  1.00  0.00     0.106 H 
BRANCH  11  21
ATOM     21  C   UNL     1     -45.491  40.389  27.079  1.00  0.00     0.095 A 
ATOM     22  N   UNL     1     -44.942  42.347  26.508  1.00  0.00    -0.275 N 
ATOM     23  C   UNL     1     -43.827  41.842  27.109  1.00  0.00     0.025 A 
ATOM     24  N   UNL     1     -45.969  41.478  26.464  1.00  0.00    -0.173 NA
ATOM     25  C   UNL     1     -44.150  40.558  27.482  1.00  0.00    -0.016 A 
ATOM     26  H   UNL     1     -42.917  42.415  27.211  1.00  0.00     0.084 H 
ATOM     27  H   UNL     1     -43.503  39.843  27.972  1.00  0.00     0.066 H 
BRANCH  22  28
ATOM     28  C   UNL     1     -45.102  43.662  25.937  1.00  0.00     0.030 C 
ATOM     29  H   UNL     1     -44.430  44.361  26.442  1.00  0.00     0.048 H 
ATOM     30  H   UNL     1     -46.140  43.975  26.078  1.00  0.00     0.048 H 
ATOM     31  H   UNL     1     -44.856  43.609  24.875  1.00  0.00     0.048 H 
ENDBRANCH  22  28
ENDBRANCH  11  21
BRANCH  16  32
ATOM     32  N   UNL     1     -48.646  41.325  27.714  1.00  0.00    -0.383 N 
ATOM     33  H   UNL     1     -49.223  41.624  26.934  1.00  0.00     0.158 HD
ATOM     34  H   UNL     1     -47.700  41.688  27.708  1.00  0.00     0.158 HD
ENDBRANCH  16  32
ENDBRANCH   1  10
BRANCH   5  35
ATOM     35  C   UNL     1     -46.694  32.715  24.684  1.00  0.00     0.120 C 
ATOM     36  H   UNL     1     -45.904  31.957  24.632  1.00  0.00     0.076 H 
ATOM     37  H   UNL     1     -46.531  33.369  23.818  1.00  0.00     0.076 H 
BRANCH  35  38
ATOM     38  O   UNL     1     -47.949  32.024  24.642  1.00  0.00    -0.444 OA
BRANCH  38  39
ATOM     39  C   UNL     1     -47.877  30.692  24.365  1.00  0.00     0.413 C 
ATOM     40  O   UNL     1     -47.065  30.205  23.596  1.00  0.00    -0.224 OA
ATOM     41  N   UNL     1     -48.853  30.071  25.084  1.00  0.00    -0.275 N 
ATOM     42  H   UNL     1     -49.429  30.690  25.632  1.00  0.00     0.175 HD
BRANCH  41  43
ATOM     43  C   UNL     1     -49.124  28.704  25.098  1.00  0.00     0.136 A 
ATOM     44  C   UNL     1     -50.272  28.276  24.435  1.00  0.00    -0.019 A 
ATOM     45  N   UNL     1     -48.307  27.848  25.733  1.00  0.00    -0.224 NA
ATOM     46  C   UNL     1     -50.583  26.918  24.425  1.00  0.00    -0.056 A 
ATOM     47  H   UNL     1     -50.925  28.978  23.928  1.00  0.00     0.066 H 
ATOM     48  C   UNL     1     -48.621  26.536  25.712  1.00  0.00     0.108 A 
ATOM     49  C   UNL     1     -49.741  26.027  25.075  1.00  0.00    -0.029 A 
ATOM     50  H   UNL     1     -51.472  26.561  23.913  1.00  0.00     0.063 H 
ATOM     51  Br  UNL     1     -47.459  25.338  26.611  1.00  0.00    -0.029 Br
ATOM     52  H   UNL     1     -49.959  24.964  25.082  1.00  0.00     0.065 H 
ENDBRANCH  41  43
ENDBRANCH  38  39
ENDBRANCH  35  38
ENDBRANCH   5  35
TORSDOF 8
ENDMDL
MODEL 5
REMARK VINA RESULT:      -9.4      2.471      3.482
REMARK SMILES Cn1ccc(-c2cn(-c3cncc(COC(=O)Nc4cccc(Br)n4)c3)c3ncnc(N)c23)n1
REMARK SMILES IDX 9 1 10 2 11 3 12 4 13 5 26 6 8 10 6 11 7 12 33 13 27 15
REMARK SMILES IDX 31 16 28 17 30 18 29 19 5 21 2 22 3 23 34 24 4 25 1 28 32 32
REMARK SMILES IDX 14 35 15 38 16 39 17 40 18 41 19 43 20 44 25 45 21 46 23 48
REMARK SMILES IDX 22 49 24 51
REMARK H PARENT 10 7 12 8 26 9 7 14 29 20 3 26 4 27 1 29 1 30 1 31 32 33 32 34
REMARK H PARENT 14 36 14 37 18 42 20 47 21 50 22 52
REMARK Flexibility Score: inf
ROOT
ATOM      1  C   UNL     1     -46.209  38.244  27.451  1.00  0.00     0.066 A 
ATOM      2  C   UNL     1     -45.843  37.892  28.746  1.00  0.00     0.051 A 
ATOM      3  N   UNL     1     -45.981  36.646  29.269  1.00  0.00    -0.262 NA
ATOM      4  C   UNL     1     -46.513  35.697  28.472  1.00  0.00     0.034 A 
ATOM      5  C   UNL     1     -46.933  35.934  27.172  1.00  0.00     0.010 A 
ATOM      6  C   UNL     1     -46.762  37.228  26.658  1.00  0.00    -0.028 A 
ATOM      7  H   UNL     1     -45.397  38.583  29.451  1.00  0.00     0.086 H 
ATOM      8  H   UNL     1     -46.591  34.710  28.924  1.00  0.00     0.084 H 
ATOM      9  H   UNL     1     -47.083  37.406  25.636  1.00  0.00     0.065 H 
ENDROOT
BRANCH   1  10
ATOM     10  N   UNL     1     -46.033  39.571  26.941  1.00  0.00    -0.299 N 
ATOM     11  C   UNL     1     -45.020  41.389  26.066  1.00  0.00     0.033 A 
ATOM     12  C   UNL     1     -44.844  40.077  26.447  1.00  0.00     0.021 A 
ATOM     13  C   UNL     1     -46.383  41.718  26.267  1.00  0.00     0.071 A 
ATOM     14  H   UNL     1     -43.934  39.495  26.417  1.00  0.00     0.083 H 
ATOM     15  C   UNL     1     -46.982  40.593  26.839  1.00  0.00     0.150 A 
ATOM     16  C   UNL     1     -47.220  42.824  26.028  1.00  0.00     0.137 A 
ATOM     17  N   UNL     1     -48.277  40.516  27.206  1.00  0.00    -0.218 NA
ATOM     18  N   UNL     1     -48.512  42.766  26.397  1.00  0.00    -0.219 NA
ATOM     19  C   UNL     1     -48.962  41.637  26.963  1.00  0.00     0.120 A 
ATOM     20  H   UNL     1     -50.008  41.633  27.251  1.00  0.00     0.106 H 
BRANCH  11  21
ATOM     21  C   UNL     1     -43.965  42.253  25.545  1.00  0.00     0.095 A 
ATOM     22  N   UNL     1     -42.837  43.433  24.205  1.00  0.00    -0.275 N 
ATOM     23  C   UNL     1     -42.094  43.412  25.349  1.00  0.00     0.025 A 
ATOM     24  N   UNL     1     -43.976  42.722  24.292  1.00  0.00    -0.173 NA
ATOM     25  C   UNL     1     -42.799  42.637  26.241  1.00  0.00    -0.016 A 
ATOM     26  H   UNL     1     -41.147  43.926  25.432  1.00  0.00     0.084 H 
ATOM     27  H   UNL     1     -42.508  42.382  27.251  1.00  0.00     0.066 H 
BRANCH  22  28
ATOM     28  C   UNL     1     -42.514  44.108  22.972  1.00  0.00     0.030 C 
ATOM     29  H   UNL     1     -41.875  43.465  22.362  1.00  0.00     0.048 H 
ATOM     30  H   UNL     1     -41.988  45.035  23.215  1.00  0.00     0.048 H 
ATOM     31  H   UNL     1     -43.445  44.321  22.442  1.00  0.00     0.048 H 
ENDBRANCH  22  28
ENDBRANCH  11  21
BRANCH  16  32
ATOM     32  N   UNL     1     -46.825  43.992  25.388  1.00  0.00    -0.383 N 
ATOM     33  H   UNL     1     -46.363  43.758  24.515  1.00  0.00     0.158 HD
ATOM     34  H   UNL     1     -46.312  44.630  25.985  1.00  0.00     0.158 HD
ENDBRANCH  16  32
ENDBRANCH   1  10
BRANCH   5  35
ATOM     35  C   UNL     1     -47.508  34.827  26.337  1.00  0.00     0.120 C 
ATOM     36  H   UNL     1     -47.333  35.037  25.276  1.00  0.00     0.076 H 
ATOM     37  H   UNL     1     -48.597  34.761  26.448  1.00  0.00     0.076 H 
BRANCH  35  38
ATOM     38  O   UNL     1     -46.832  33.601  26.644  1.00  0.00    -0.444 OA
BRANCH  38  39
ATOM     39  C   UNL     1     -47.365  32.480  26.083  1.00  0.00     0.413 C 
ATOM     40  O   UNL     1     -47.966  31.629  26.718  1.00  0.00    -0.224 OA
ATOM     41  N   UNL     1     -47.089  32.517  24.750  1.00  0.00    -0.275 N 
ATOM     42  H   UNL     1     -46.546  33.313  24.456  1.00  0.00     0.175 HD
BRANCH  41  43
ATOM     43  C   UNL     1     -47.461  31.564  23.804  1.00  0.00     0.136 A 
ATOM     44  C   UNL     1     -46.518  30.593  23.474  1.00  0.00    -0.019 A 
ATOM     45  N   UNL     1     -48.678  31.595  23.238  1.00  0.00    -0.224 NA
ATOM     46  C   UNL     1     -46.845  29.621  22.532  1.00  0.00    -0.056 A 
ATOM     47  H   UNL     1     -45.536  30.579  23.938  1.00  0.00     0.066 H 
ATOM     48  C   UNL     1     -48.980  30.645  22.329  1.00  0.00     0.108 A 
ATOM     49  C   UNL     1     -48.104  29.644  21.946  1.00  0.00    -0.029 A 
ATOM     50  H   UNL     1     -46.126  28.852  22.261  1.00  0.00     0.063 H 
ATOM     51  Br  UNL     1     -50.703  30.700  21.538  1.00  0.00    -0.029 Br
ATOM     52  H   UNL     1     -48.385  28.898  21.211  1.00  0.00     0.065 H 
ENDBRANCH  41  43
ENDBRANCH  38  39
ENDBRANCH  35  38
ENDBRANCH   5  35
TORSDOF 8
ENDMDL
