MODEL 1
REMARK VINA RESULT:     -10.8      0.000      0.000
REMARK SMILES Nc1ncnc2c1c(-c1cnccn1)cn2[C@@H]1O[C@H](COc2ccc3ccc(N4CCC4)nc3c2)[C@@H](O)[C@@H]1F
REMARK SMILES IDX 20 1 19 4 17 5 18 6 38 7 36 9 39 10 16 14 2 15 3 16 7 17
REMARK SMILES IDX 4 18 6 19 8 20 5 21 15 23 1 25 9 28 10 29 14 30 11 31 13 33
REMARK SMILES IDX 12 34 37 37 21 39 22 40 23 41 35 42 24 43 34 45 25 47 33 49
REMARK SMILES IDX 26 50 28 51 27 52 29 55 30 56 32 57 31 58
REMARK H PARENT 20 2 20 3 17 8 38 11 19 12 36 13 4 22 15 24 1 26 1 27 10 32
REMARK H PARENT 13 35 12 36 37 38 23 44 35 46 24 48 26 53 27 54 30 59 30 60
REMARK H PARENT 32 61 32 62 31 63 31 64
REMARK Flexibility Score: inf
ROOT
ATOM      1  C   UNL     1     -46.790  35.965  26.461  1.00  0.00     0.117 C 
ATOM      2  H   UNL     1     -45.892  35.479  26.059  1.00  0.00     0.073 H 
ATOM      3  H   UNL     1     -47.079  36.819  25.837  1.00  0.00     0.073 H 
ENDROOT
BRANCH   1   4
ATOM      4  C   UNL     1     -46.521  36.444  27.888  1.00  0.00     0.123 C 
ATOM      5  C   UNL     1     -45.296  38.123  28.940  1.00  0.00     0.169 C 
ATOM      6  O   UNL     1     -45.211  37.046  27.988  1.00  0.00    -0.345 OA
ATOM      7  C   UNL     1     -46.737  38.215  29.424  1.00  0.00     0.173 C 
ATOM      8  H   UNL     1     -44.648  37.851  29.782  1.00  0.00     0.088 H 
ATOM      9  C   UNL     1     -47.519  37.501  28.344  1.00  0.00     0.119 C 
ATOM     10  F   UNL     1     -47.180  39.484  29.580  1.00  0.00    -0.239 F 
ATOM     11  H   UNL     1     -46.856  37.705  30.386  1.00  0.00     0.074 H 
ATOM     12  H   UNL     1     -46.529  35.580  28.566  1.00  0.00     0.067 H 
ATOM     13  H   UNL     1     -47.807  38.183  27.541  1.00  0.00     0.066 H 
BRANCH   5  14
ATOM     14  N   UNL     1     -44.737  39.335  28.356  1.00  0.00    -0.302 N 
ATOM     15  C   UNL     1     -42.374  41.971  28.267  1.00  0.00     0.137 A 
ATOM     16  N   UNL     1     -41.605  41.692  29.336  1.00  0.00    -0.219 NA
ATOM     17  C   UNL     1     -43.461  41.131  27.965  1.00  0.00     0.071 A 
ATOM     18  C   UNL     1     -41.896  40.599  30.061  1.00  0.00     0.120 A 
ATOM     19  C   UNL     1     -43.643  40.035  28.802  1.00  0.00     0.148 A 
ATOM     20  C   UNL     1     -44.493  41.085  26.973  1.00  0.00     0.033 A 
ATOM     21  N   UNL     1     -42.884  39.711  29.863  1.00  0.00    -0.218 NA
ATOM     22  H   UNL     1     -41.249  40.412  30.912  1.00  0.00     0.106 H 
ATOM     23  C   UNL     1     -45.261  39.965  27.249  1.00  0.00     0.019 A 
ATOM     24  H   UNL     1     -46.148  39.574  26.765  1.00  0.00     0.083 H 
BRANCH  15  25
ATOM     25  N   UNL     1     -42.042  43.100  27.529  1.00  0.00    -0.383 N 
ATOM     26  H   UNL     1     -41.284  43.630  27.961  1.00  0.00     0.158 HD
ATOM     27  H   UNL     1     -41.925  42.865  26.552  1.00  0.00     0.158 HD
ENDBRANCH  15  25
BRANCH  20  28
ATOM     28  C   UNL     1     -44.780  42.007  25.883  1.00  0.00     0.091 A 
ATOM     29  C   UNL     1     -45.915  42.815  25.872  1.00  0.00     0.053 A 
ATOM     30  N   UNL     1     -43.876  42.056  24.869  1.00  0.00    -0.253 NA
ATOM     31  N   UNL     1     -46.191  43.698  24.877  1.00  0.00    -0.261 NA
ATOM     32  H   UNL     1     -46.656  42.776  26.663  1.00  0.00     0.086 H 
ATOM     33  C   UNL     1     -44.150  42.939  23.878  1.00  0.00     0.046 A 
ATOM     34  C   UNL     1     -45.279  43.741  23.882  1.00  0.00     0.045 A 
ATOM     35  H   UNL     1     -43.428  42.987  23.070  1.00  0.00     0.086 H 
ATOM     36  H   UNL     1     -45.481  44.440  23.079  1.00  0.00     0.086 H 
ENDBRANCH  20  28
ENDBRANCH   5  14
BRANCH   9  37
ATOM     37  O   UNL     1     -48.714  36.913  28.854  1.00  0.00    -0.387 OA
ATOM     38  H   UNL     1     -48.912  36.140  28.290  1.00  0.00     0.211 HD
ENDBRANCH   9  37
ENDBRANCH   1   4
BRANCH   1  39
ATOM     39  O   UNL     1     -47.866  35.018  26.494  1.00  0.00    -0.491 OA
BRANCH  39  40
ATOM     40  C   UNL     1     -47.663  33.825  25.855  1.00  0.00     0.121 A 
ATOM     41  C   UNL     1     -46.553  33.800  25.013  1.00  0.00    -0.019 A 
ATOM     42  C   UNL     1     -48.449  32.678  25.985  1.00  0.00     0.007 A 
ATOM     43  C   UNL     1     -46.236  32.643  24.305  1.00  0.00    -0.049 A 
ATOM     44  H   UNL     1     -45.936  34.689  24.906  1.00  0.00     0.066 H 
ATOM     45  C   UNL     1     -48.155  31.509  25.292  1.00  0.00     0.076 A 
ATOM     46  H   UNL     1     -49.319  32.658  26.633  1.00  0.00     0.069 H 
ATOM     47  C   UNL     1     -47.034  31.497  24.442  1.00  0.00     0.001 A 
ATOM     48  H   UNL     1     -45.369  32.643  23.650  1.00  0.00     0.063 H 
ATOM     49  N   UNL     1     -48.946  30.434  25.456  1.00  0.00    -0.231 NA
ATOM     50  C   UNL     1     -46.754  30.317  23.748  1.00  0.00    -0.049 A 
ATOM     51  C   UNL     1     -48.664  29.293  24.787  1.00  0.00     0.129 A 
ATOM     52  C   UNL     1     -47.578  29.209  23.921  1.00  0.00    -0.019 A 
ATOM     53  H   UNL     1     -45.906  30.253  23.073  1.00  0.00     0.063 H 
ATOM     54  H   UNL     1     -47.375  28.296  23.374  1.00  0.00     0.066 H 
BRANCH  51  55
ATOM     55  N   UNL     1     -49.510  28.182  24.959  1.00  0.00    -0.356 N 
ATOM     56  C   UNL     1     -49.743  27.131  24.012  1.00  0.00     0.021 C 
ATOM     57  C   UNL     1     -49.419  27.262  26.058  1.00  0.00     0.021 C 
ATOM     58  C   UNL     1     -50.235  26.292  25.196  1.00  0.00    -0.018 C 
ATOM     59  H   UNL     1     -48.823  26.769  23.540  1.00  0.00     0.049 H 
ATOM     60  H   UNL     1     -50.495  27.377  23.260  1.00  0.00     0.049 H 
ATOM     61  H   UNL     1     -48.394  26.941  26.268  1.00  0.00     0.049 H 
ATOM     62  H   UNL     1     -49.909  27.619  26.967  1.00  0.00     0.049 H 
ATOM     63  H   UNL     1     -49.907  25.250  25.211  1.00  0.00     0.030 H 
ATOM     64  H   UNL     1     -51.317  26.339  25.364  1.00  0.00     0.030 H 
ENDBRANCH  51  55
ENDBRANCH  39  40
ENDBRANCH   1  39
TORSDOF 8
ENDMDL
MODEL 2
REMARK VINA RESULT:      -9.5      1.633      2.689
REMARK SMILES Nc1ncnc2c1c(-c1cnccn1)cn2[C@@H]1O[C@H](COc2ccc3ccc(N4CCC4)nc3c2)[C@@H](O)[C@@H]1F
REMARK SMILES IDX 20 1 19 4 17 5 18 6 38 7 36 9 39 10 16 14 2 15 3 16 7 17
REMARK SMILES IDX 4 18 6 19 8 20 5 21 15 23 1 25 9 28 10 29 14 30 11 31 13 33
REMARK SMILES IDX 12 34 37 37 21 39 22 40 23 41 35 42 24 43 34 45 25 47 33 49
REMARK SMILES IDX 26 50 28 51 27 52 29 55 30 56 32 57 31 58
REMARK H PARENT 20 2 20 3 17 8 38 11 19 12 36 13 4 22 15 24 1 26 1 27 10 32
REMARK H PARENT 13 35 12 36 37 38 23 44 35 46 24 48 26 53 27 54 30 59 30 60
REMARK H PARENT 32 61 32 62 31 63 31 64
REMARK Flexibility Score: inf
ROOT
ATOM      1  C   UNL     1     -47.860  35.500  28.324  1.00  0.00     0.117 C 
ATOM      2  H   UNL     1     -48.518  36.243  28.790  1.00  0.00     0.073 H 
ATOM      3  H   UNL     1     -48.087  34.495  28.699  1.00  0.00     0.073 H 
ENDROOT
BRANCH   1   4
ATOM      4  C   UNL     1     -46.401  35.841  28.630  1.00  0.00     0.123 C 
ATOM      5  C   UNL     1     -44.876  37.520  28.100  1.00  0.00     0.169 C 
ATOM      6  O   UNL     1     -45.807  36.576  27.538  1.00  0.00    -0.345 OA
ATOM      7  C   UNL     1     -44.925  37.388  29.617  1.00  0.00     0.173 C 
ATOM      8  H   UNL     1     -43.880  37.231  27.744  1.00  0.00     0.088 H 
ATOM      9  C   UNL     1     -46.255  36.715  29.870  1.00  0.00     0.119 C 
ATOM     10  F   UNL     1     -44.850  38.570  30.271  1.00  0.00    -0.239 F 
ATOM     11  H   UNL     1     -44.102  36.760  29.977  1.00  0.00     0.074 H 
ATOM     12  H   UNL     1     -45.828  34.910  28.739  1.00  0.00     0.067 H 
ATOM     13  H   UNL     1     -47.061  37.446  29.967  1.00  0.00     0.066 H 
BRANCH   5  14
ATOM     14  N   UNL     1     -45.144  38.848  27.564  1.00  0.00    -0.302 N 
ATOM     15  C   UNL     1     -47.314  41.537  26.789  1.00  0.00     0.137 A 
ATOM     16  N   UNL     1     -48.502  41.068  27.214  1.00  0.00    -0.219 NA
ATOM     17  C   UNL     1     -46.170  40.730  26.919  1.00  0.00     0.071 A 
ATOM     18  C   UNL     1     -48.539  39.847  27.775  1.00  0.00     0.120 A 
ATOM     19  C   UNL     1     -46.358  39.488  27.519  1.00  0.00     0.148 A 
ATOM     20  C   UNL     1     -44.780  40.837  26.591  1.00  0.00     0.033 A 
ATOM     21  N   UNL     1     -47.521  38.996  27.978  1.00  0.00    -0.218 NA
ATOM     22  H   UNL     1     -49.517  39.510  28.105  1.00  0.00     0.106 H 
ATOM     23  C   UNL     1     -44.181  39.657  27.002  1.00  0.00     0.019 A 
ATOM     24  H   UNL     1     -43.156  39.315  26.922  1.00  0.00     0.083 H 
BRANCH  15  25
ATOM     25  N   UNL     1     -47.303  42.806  26.225  1.00  0.00    -0.383 N 
ATOM     26  H   UNL     1     -48.112  43.359  26.511  1.00  0.00     0.158 HD
ATOM     27  H   UNL     1     -46.398  43.241  26.344  1.00  0.00     0.158 HD
ENDBRANCH  15  25
BRANCH  20  28
ATOM     28  C   UNL     1     -44.061  41.913  25.922  1.00  0.00     0.091 A 
ATOM     29  C   UNL     1     -42.919  42.495  26.467  1.00  0.00     0.053 A 
ATOM     30  N   UNL     1     -44.550  42.320  24.721  1.00  0.00    -0.253 NA
ATOM     31  N   UNL     1     -42.220  43.483  25.850  1.00  0.00    -0.261 NA
ATOM     32  H   UNL     1     -42.526  42.195  27.432  1.00  0.00     0.086 H 
ATOM     33  C   UNL     1     -43.851  43.304  24.104  1.00  0.00     0.046 A 
ATOM     34  C   UNL     1     -42.713  43.871  24.654  1.00  0.00     0.045 A 
ATOM     35  H   UNL     1     -44.233  43.628  23.143  1.00  0.00     0.086 H 
ATOM     36  H   UNL     1     -42.169  44.658  24.145  1.00  0.00     0.086 H 
ENDBRANCH  20  28
ENDBRANCH   5  14
BRANCH   9  37
ATOM     37  O   UNL     1     -46.239  35.936  31.065  1.00  0.00    -0.387 OA
ATOM     38  H   UNL     1     -47.112  35.504  31.132  1.00  0.00     0.211 HD
ENDBRANCH   9  37
ENDBRANCH   1   4
BRANCH   1  39
ATOM     39  O   UNL     1     -48.045  35.528  26.902  1.00  0.00    -0.491 OA
BRANCH  39  40
ATOM     40  C   UNL     1     -47.793  34.369  26.221  1.00  0.00     0.121 A 
ATOM     41  C   UNL     1     -46.617  34.378  25.475  1.00  0.00    -0.019 A 
ATOM     42  C   UNL     1     -48.591  33.222  26.225  1.00  0.00     0.007 A 
ATOM     43  C   UNL     1     -46.245  33.257  24.736  1.00  0.00    -0.049 A 
ATOM     44  H   UNL     1     -45.990  35.266  25.466  1.00  0.00     0.066 H 
ATOM     45  C   UNL     1     -48.244  32.089  25.499  1.00  0.00     0.076 A 
ATOM     46  H   UNL     1     -49.512  33.175  26.796  1.00  0.00     0.069 H 
ATOM     47  C   UNL     1     -47.056  32.111  24.746  1.00  0.00     0.001 A 
ATOM     48  H   UNL     1     -45.326  33.283  24.157  1.00  0.00     0.063 H 
ATOM     49  N   UNL     1     -49.050  31.013  25.540  1.00  0.00    -0.231 NA
ATOM     50  C   UNL     1     -46.723  30.967  24.018  1.00  0.00    -0.049 A 
ATOM     51  C   UNL     1     -48.717  29.905  24.838  1.00  0.00     0.129 A 
ATOM     52  C   UNL     1     -47.563  29.858  24.063  1.00  0.00    -0.019 A 
ATOM     53  H   UNL     1     -45.822  30.931  23.413  1.00  0.00     0.063 H 
ATOM     54  H   UNL     1     -47.318  28.972  23.488  1.00  0.00     0.066 H 
BRANCH  51  55
ATOM     55  N   UNL     1     -49.579  28.794  24.881  1.00  0.00    -0.356 N 
ATOM     56  C   UNL     1     -50.129  28.096  23.756  1.00  0.00     0.021 C 
ATOM     57  C   UNL     1     -49.286  27.573  25.579  1.00  0.00     0.021 C 
ATOM     58  C   UNL     1     -50.370  26.924  24.712  1.00  0.00    -0.018 C 
ATOM     59  H   UNL     1     -49.392  27.906  22.968  1.00  0.00     0.049 H 
ATOM     60  H   UNL     1     -51.025  28.565  23.345  1.00  0.00     0.049 H 
ATOM     61  H   UNL     1     -48.270  27.206  25.399  1.00  0.00     0.049 H 
ATOM     62  H   UNL     1     -49.498  27.622  26.650  1.00  0.00     0.049 H 
ATOM     63  H   UNL     1     -50.134  25.932  24.319  1.00  0.00     0.030 H 
ATOM     64  H   UNL     1     -51.366  26.911  25.169  1.00  0.00     0.030 H 
ENDBRANCH  51  55
ENDBRANCH  39  40
ENDBRANCH   1  39
TORSDOF 8
ENDMDL
MODEL 3
REMARK VINA RESULT:      -9.4      2.840     11.585
REMARK SMILES Nc1ncnc2c1c(-c1cnccn1)cn2[C@@H]1O[C@H](COc2ccc3ccc(N4CCC4)nc3c2)[C@@H](O)[C@@H]1F
REMARK SMILES IDX 20 1 19 4 17 5 18 6 38 7 36 9 39 10 16 14 2 15 3 16 7 17
REMARK SMILES IDX 4 18 6 19 8 20 5 21 15 23 1 25 9 28 10 29 14 30 11 31 13 33
REMARK SMILES IDX 12 34 37 37 21 39 22 40 23 41 35 42 24 43 34 45 25 47 33 49
REMARK SMILES IDX 26 50 28 51 27 52 29 55 30 56 32 57 31 58
REMARK H PARENT 20 2 20 3 17 8 38 11 19 12 36 13 4 22 15 24 1 26 1 27 10 32
REMARK H PARENT 13 35 12 36 37 38 23 44 35 46 24 48 26 53 27 54 30 59 30 60
REMARK H PARENT 32 61 32 62 31 63 31 64
REMARK Flexibility Score: inf
ROOT
ATOM      1  C   UNL     1     -49.110  34.908  26.652  1.00  0.00     0.117 C 
ATOM      2  H   UNL     1     -50.117  34.492  26.528  1.00  0.00     0.073 H 
ATOM      3  H   UNL     1     -48.850  35.551  25.802  1.00  0.00     0.073 H 
ENDROOT
BRANCH   1   4
ATOM      4  C   UNL     1     -48.093  33.770  26.760  1.00  0.00     0.123 C 
ATOM      5  C   UNL     1     -47.932  31.536  26.121  1.00  0.00     0.169 C 
ATOM      6  O   UNL     1     -48.761  32.490  26.812  1.00  0.00    -0.345 OA
ATOM      7  C   UNL     1     -46.712  32.271  25.582  1.00  0.00     0.173 C 
ATOM      8  H   UNL     1     -47.611  30.798  26.866  1.00  0.00     0.088 H 
ATOM      9  C   UNL     1     -47.149  33.718  25.565  1.00  0.00     0.119 C 
ATOM     10  F   UNL     1     -46.332  31.867  24.348  1.00  0.00    -0.239 F 
ATOM     11  H   UNL     1     -45.853  32.136  26.250  1.00  0.00     0.074 H 
ATOM     12  H   UNL     1     -47.530  33.876  27.697  1.00  0.00     0.067 H 
ATOM     13  H   UNL     1     -47.645  33.975  24.626  1.00  0.00     0.066 H 
BRANCH   5  14
ATOM     14  N   UNL     1     -48.732  30.818  25.138  1.00  0.00    -0.302 N 
ATOM     15  C   UNL     1     -50.175  27.861  23.826  1.00  0.00     0.137 A 
ATOM     16  N   UNL     1     -49.749  26.931  24.701  1.00  0.00    -0.219 NA
ATOM     17  C   UNL     1     -49.792  29.202  24.008  1.00  0.00     0.071 A 
ATOM     18  C   UNL     1     -48.989  27.331  25.734  1.00  0.00     0.120 A 
ATOM     19  C   UNL     1     -49.003  29.472  25.122  1.00  0.00     0.148 A 
ATOM     20  C   UNL     1     -50.003  30.444  23.326  1.00  0.00     0.033 A 
ATOM     21  N   UNL     1     -48.578  28.575  26.029  1.00  0.00    -0.218 NA
ATOM     22  H   UNL     1     -48.669  26.548  26.415  1.00  0.00     0.106 H 
ATOM     23  C   UNL     1     -49.333  31.416  24.052  1.00  0.00     0.019 A 
ATOM     24  H   UNL     1     -49.213  32.478  23.876  1.00  0.00     0.083 H 
BRANCH  15  25
ATOM     25  N   UNL     1     -50.970  27.421  22.775  1.00  0.00    -0.383 N 
ATOM     26  H   UNL     1     -50.833  27.980  21.932  1.00  0.00     0.158 HD
ATOM     27  H   UNL     1     -50.894  26.418  22.667  1.00  0.00     0.158 HD
ENDBRANCH  15  25
BRANCH  20  28
ATOM     28  C   UNL     1     -50.726  30.719  22.091  1.00  0.00     0.091 A 
ATOM     29  C   UNL     1     -51.754  31.656  22.025  1.00  0.00     0.053 A 
ATOM     30  N   UNL     1     -50.339  30.023  20.990  1.00  0.00    -0.253 NA
ATOM     31  N   UNL     1     -52.425  31.944  20.880  1.00  0.00    -0.261 NA
ATOM     32  H   UNL     1     -52.086  32.208  22.898  1.00  0.00     0.086 H 
ATOM     33  C   UNL     1     -51.008  30.313  19.847  1.00  0.00     0.046 A 
ATOM     34  C   UNL     1     -52.025  31.251  19.792  1.00  0.00     0.045 A 
ATOM     35  H   UNL     1     -50.700  29.764  18.963  1.00  0.00     0.086 H 
ATOM     36  H   UNL     1     -52.548  31.468  18.868  1.00  0.00     0.086 H 
ENDBRANCH  20  28
ENDBRANCH   5  14
BRANCH   9  37
ATOM     37  O   UNL     1     -46.047  34.609  25.724  1.00  0.00    -0.387 OA
ATOM     38  H   UNL     1     -46.206  35.112  26.546  1.00  0.00     0.211 HD
ENDBRANCH   9  37
ENDBRANCH   1   4
BRANCH   1  39
ATOM     39  O   UNL     1     -49.060  35.678  27.861  1.00  0.00    -0.491 OA
BRANCH  39  40
ATOM     40  C   UNL     1     -47.971  36.486  28.037  1.00  0.00     0.121 A 
ATOM     41  C   UNL     1     -47.167  36.146  29.123  1.00  0.00    -0.019 A 
ATOM     42  C   UNL     1     -47.616  37.576  27.238  1.00  0.00     0.007 A 
ATOM     43  C   UNL     1     -46.025  36.891  29.411  1.00  0.00    -0.049 A 
ATOM     44  H   UNL     1     -47.436  35.300  29.751  1.00  0.00     0.066 H 
ATOM     45  C   UNL     1     -46.482  38.334  27.500  1.00  0.00     0.076 A 
ATOM     46  H   UNL     1     -48.215  37.869  26.382  1.00  0.00     0.069 H 
ATOM     47  C   UNL     1     -45.679  37.984  28.602  1.00  0.00     0.001 A 
ATOM     48  H   UNL     1     -45.412  36.614  30.264  1.00  0.00     0.063 H 
ATOM     49  N   UNL     1     -46.188  39.372  26.697  1.00  0.00    -0.231 NA
ATOM     50  C   UNL     1     -44.545  38.759  28.856  1.00  0.00    -0.049 A 
ATOM     51  C   UNL     1     -45.084  40.113  26.945  1.00  0.00     0.129 A 
ATOM     52  C   UNL     1     -44.249  39.833  28.021  1.00  0.00    -0.019 A 
ATOM     53  H   UNL     1     -43.894  38.539  29.697  1.00  0.00     0.063 H 
ATOM     54  H   UNL     1     -43.379  40.447  28.222  1.00  0.00     0.066 H 
BRANCH  51  55
ATOM     55  N   UNL     1     -44.799  41.204  26.102  1.00  0.00    -0.356 N 
ATOM     56  C   UNL     1     -45.720  42.220  25.681  1.00  0.00     0.021 C 
ATOM     57  C   UNL     1     -43.754  42.158  26.344  1.00  0.00     0.021 C 
ATOM     58  C   UNL     1     -44.491  43.078  25.365  1.00  0.00    -0.018 C 
ATOM     59  H   UNL     1     -46.348  42.594  26.497  1.00  0.00     0.049 H 
ATOM     60  H   UNL     1     -46.329  41.930  24.823  1.00  0.00     0.049 H 
ATOM     61  H   UNL     1     -43.726  42.515  27.379  1.00  0.00     0.049 H 
ATOM     62  H   UNL     1     -42.767  41.814  26.024  1.00  0.00     0.049 H 
ATOM     63  H   UNL     1     -44.556  44.129  25.656  1.00  0.00     0.030 H 
ATOM     64  H   UNL     1     -44.143  43.005  24.328  1.00  0.00     0.030 H 
ENDBRANCH  51  55
ENDBRANCH  39  40
ENDBRANCH   1  39
TORSDOF 8
ENDMDL
MODEL 4
REMARK VINA RESULT:      -9.3      2.668     12.169
REMARK SMILES Nc1ncnc2c1c(-c1cnccn1)cn2[C@@H]1O[C@H](COc2ccc3ccc(N4CCC4)nc3c2)[C@@H](O)[C@@H]1F
REMARK SMILES IDX 20 1 19 4 17 5 18 6 38 7 36 9 39 10 16 14 2 15 3 16 7 17
REMARK SMILES IDX 4 18 6 19 8 20 5 21 15 23 1 25 9 28 10 29 14 30 11 31 13 33
REMARK SMILES IDX 12 34 37 37 21 39 22 40 23 41 35 42 24 43 34 45 25 47 33 49
REMARK SMILES IDX 26 50 28 51 27 52 29 55 30 56 32 57 31 58
REMARK H PARENT 20 2 20 3 17 8 38 11 19 12 36 13 4 22 15 24 1 26 1 27 10 32
REMARK H PARENT 13 35 12 36 37 38 23 44 35 46 24 48 26 53 27 54 30 59 30 60
REMARK H PARENT 32 61 32 62 31 63 31 64
REMARK Flexibility Score: inf
ROOT
ATOM      1  C   UNL     1     -46.578  33.647  26.732  1.00  0.00     0.117 C 
ATOM      2  H   UNL     1     -45.705  34.232  26.421  1.00  0.00     0.073 H 
ATOM      3  H   UNL     1     -46.267  32.677  27.141  1.00  0.00     0.073 H 
ENDROOT
BRANCH   1   4
ATOM      4  C   UNL     1     -47.502  33.422  25.535  1.00  0.00     0.123 C 
ATOM      5  C   UNL     1     -47.939  31.735  23.988  1.00  0.00     0.169 C 
ATOM      6  O   UNL     1     -46.891  32.528  24.578  1.00  0.00    -0.345 OA
ATOM      7  C   UNL     1     -49.257  32.132  24.640  1.00  0.00     0.173 C 
ATOM      8  H   UNL     1     -47.969  31.995  22.923  1.00  0.00     0.088 H 
ATOM      9  C   UNL     1     -48.828  32.787  25.934  1.00  0.00     0.119 C 
ATOM     10  F   UNL     1     -50.083  31.088  24.879  1.00  0.00    -0.239 F 
ATOM     11  H   UNL     1     -49.801  32.844  24.010  1.00  0.00     0.074 H 
ATOM     12  H   UNL     1     -47.666  34.378  25.020  1.00  0.00     0.067 H 
ATOM     13  H   UNL     1     -48.720  32.054  26.737  1.00  0.00     0.066 H 
BRANCH   5  14
ATOM     14  N   UNL     1     -47.585  30.324  24.065  1.00  0.00    -0.302 N 
ATOM     15  C   UNL     1     -45.548  27.552  23.224  1.00  0.00     0.137 A 
ATOM     16  N   UNL     1     -44.638  28.113  22.405  1.00  0.00    -0.219 NA
ATOM     17  C   UNL     1     -46.564  28.354  23.774  1.00  0.00     0.071 A 
ATOM     18  C   UNL     1     -44.726  29.432  22.168  1.00  0.00     0.120 A 
ATOM     19  C   UNL     1     -46.530  29.705  23.441  1.00  0.00     0.148 A 
ATOM     20  C   UNL     1     -47.689  28.157  24.638  1.00  0.00     0.033 A 
ATOM     21  N   UNL     1     -45.626  30.304  22.648  1.00  0.00    -0.218 NA
ATOM     22  H   UNL     1     -43.970  29.842  21.503  1.00  0.00     0.106 H 
ATOM     23  C   UNL     1     -48.295  29.394  24.792  1.00  0.00     0.019 A 
ATOM     24  H   UNL     1     -49.183  29.687  25.339  1.00  0.00     0.083 H 
BRANCH  15  25
ATOM     25  N   UNL     1     -45.426  26.189  23.462  1.00  0.00    -0.383 N 
ATOM     26  H   UNL     1     -46.000  25.885  24.250  1.00  0.00     0.158 HD
ATOM     27  H   UNL     1     -45.531  25.666  22.602  1.00  0.00     0.158 HD
ENDBRANCH  15  25
BRANCH  20  28
ATOM     28  C   UNL     1     -48.197  26.933  25.244  1.00  0.00     0.091 A 
ATOM     29  C   UNL     1     -49.529  26.542  25.128  1.00  0.00     0.053 A 
ATOM     30  N   UNL     1     -47.300  26.173  25.926  1.00  0.00    -0.253 NA
ATOM     31  N   UNL     1     -50.017  25.395  25.666  1.00  0.00    -0.261 NA
ATOM     32  H   UNL     1     -50.261  27.146  24.603  1.00  0.00     0.086 H 
ATOM     33  C   UNL     1     -47.787  25.026  26.460  1.00  0.00     0.046 A 
ATOM     34  C   UNL     1     -49.113  24.646  26.333  1.00  0.00     0.045 A 
ATOM     35  H   UNL     1     -47.075  24.412  27.000  1.00  0.00     0.086 H 
ATOM     36  H   UNL     1     -49.483  23.725  26.769  1.00  0.00     0.086 H 
ENDBRANCH  20  28
ENDBRANCH   5  14
BRANCH   9  37
ATOM     37  O   UNL     1     -49.770  33.764  26.372  1.00  0.00    -0.387 OA
ATOM     38  H   UNL     1     -50.123  34.196  25.570  1.00  0.00     0.211 HD
ENDBRANCH   9  37
ENDBRANCH   1   4
BRANCH   1  39
ATOM     39  O   UNL     1     -47.302  34.372  27.735  1.00  0.00    -0.491 OA
BRANCH  39  40
ATOM     40  C   UNL     1     -47.243  35.738  27.677  1.00  0.00     0.121 A 
ATOM     41  C   UNL     1     -48.481  36.375  27.738  1.00  0.00    -0.019 A 
ATOM     42  C   UNL     1     -46.082  36.507  27.571  1.00  0.00     0.007 A 
ATOM     43  C   UNL     1     -48.557  37.765  27.689  1.00  0.00    -0.049 A 
ATOM     44  H   UNL     1     -49.389  35.784  27.819  1.00  0.00     0.066 H 
ATOM     45  C   UNL     1     -46.128  37.895  27.522  1.00  0.00     0.076 A 
ATOM     46  H   UNL     1     -45.101  36.048  27.524  1.00  0.00     0.069 H 
ATOM     47  C   UNL     1     -47.384  38.528  27.581  1.00  0.00     0.001 A 
ATOM     48  H   UNL     1     -49.531  38.245  27.734  1.00  0.00     0.063 H 
ATOM     49  N   UNL     1     -44.979  38.586  27.421  1.00  0.00    -0.231 NA
ATOM     50  C   UNL     1     -47.415  39.923  27.526  1.00  0.00    -0.049 A 
ATOM     51  C   UNL     1     -45.016  39.937  27.376  1.00  0.00     0.129 A 
ATOM     52  C   UNL     1     -46.221  40.631  27.419  1.00  0.00    -0.019 A 
ATOM     53  H   UNL     1     -48.356  40.464  27.560  1.00  0.00     0.063 H 
ATOM     54  H   UNL     1     -46.240  41.713  27.360  1.00  0.00     0.066 H 
BRANCH  51  55
ATOM     55  N   UNL     1     -43.805  40.643  27.256  1.00  0.00    -0.356 N 
ATOM     56  C   UNL     1     -43.621  41.926  26.643  1.00  0.00     0.021 C 
ATOM     57  C   UNL     1     -42.953  40.977  28.364  1.00  0.00     0.021 C 
ATOM     58  C   UNL     1     -42.319  42.025  27.442  1.00  0.00    -0.018 C 
ATOM     59  H   UNL     1     -44.394  42.650  26.926  1.00  0.00     0.049 H 
ATOM     60  H   UNL     1     -43.510  41.881  25.558  1.00  0.00     0.049 H 
ATOM     61  H   UNL     1     -43.500  41.387  29.219  1.00  0.00     0.049 H 
ATOM     62  H   UNL     1     -42.301  40.157  28.674  1.00  0.00     0.049 H 
ATOM     63  H   UNL     1     -42.111  42.996  27.898  1.00  0.00     0.030 H 
ATOM     64  H   UNL     1     -41.430  41.674  26.904  1.00  0.00     0.030 H 
ENDBRANCH  51  55
ENDBRANCH  39  40
ENDBRANCH   1  39
TORSDOF 8
ENDMDL
MODEL 5
REMARK VINA RESULT:      -9.1      2.474      4.331
REMARK SMILES Nc1ncnc2c1c(-c1cnccn1)cn2[C@@H]1O[C@H](COc2ccc3ccc(N4CCC4)nc3c2)[C@@H](O)[C@@H]1F
REMARK SMILES IDX 20 1 19 4 17 5 18 6 38 7 36 9 39 10 16 14 2 15 3 16 7 17
REMARK SMILES IDX 4 18 6 19 8 20 5 21 15 23 1 25 9 28 10 29 14 30 11 31 13 33
REMARK SMILES IDX 12 34 37 37 21 39 22 40 23 41 35 42 24 43 34 45 25 47 33 49
REMARK SMILES IDX 26 50 28 51 27 52 29 55 30 56 32 57 31 58
REMARK H PARENT 20 2 20 3 17 8 38 11 19 12 36 13 4 22 15 24 1 26 1 27 10 32
REMARK H PARENT 13 35 12 36 37 38 23 44 35 46 24 48 26 53 27 54 30 59 30 60
REMARK H PARENT 32 61 32 62 31 63 31 64
REMARK Flexibility Score: inf
ROOT
ATOM      1  C   UNL     1     -46.103  38.025  28.413  1.00  0.00     0.117 C 
ATOM      2  H   UNL     1     -46.618  38.684  29.123  1.00  0.00     0.073 H 
ATOM      3  H   UNL     1     -45.954  37.030  28.848  1.00  0.00     0.073 H 
ENDROOT
BRANCH   1   4
ATOM      4  C   UNL     1     -44.747  38.628  28.042  1.00  0.00     0.123 C 
ATOM      5  C   UNL     1     -43.942  40.434  26.810  1.00  0.00     0.169 C 
ATOM      6  O   UNL     1     -44.814  39.288  26.759  1.00  0.00    -0.345 OA
ATOM      7  C   UNL     1     -43.337  40.507  28.206  1.00  0.00     0.173 C 
ATOM      8  H   UNL     1     -43.145  40.257  26.078  1.00  0.00     0.088 H 
ATOM      9  C   UNL     1     -44.283  39.677  29.045  1.00  0.00     0.119 C 
ATOM     10  F   UNL     1     -43.238  41.765  28.692  1.00  0.00    -0.239 F 
ATOM     11  H   UNL     1     -42.332  40.071  28.215  1.00  0.00     0.074 H 
ATOM     12  H   UNL     1     -44.006  37.822  27.950  1.00  0.00     0.067 H 
ATOM     13  H   UNL     1     -45.106  40.280  29.434  1.00  0.00     0.066 H 
BRANCH   5  14
ATOM     14  N   UNL     1     -44.666  41.616  26.363  1.00  0.00    -0.302 N 
ATOM     15  C   UNL     1     -44.798  44.880  24.993  1.00  0.00     0.137 A 
ATOM     16  N   UNL     1     -43.495  45.151  24.792  1.00  0.00    -0.219 NA
ATOM     17  C   UNL     1     -45.164  43.642  25.551  1.00  0.00     0.071 A 
ATOM     18  C   UNL     1     -42.594  44.208  25.112  1.00  0.00     0.120 A 
ATOM     19  C   UNL     1     -44.124  42.762  25.833  1.00  0.00     0.148 A 
ATOM     20  C   UNL     1     -46.384  42.993  25.929  1.00  0.00     0.033 A 
ATOM     21  N   UNL     1     -42.816  42.987  25.624  1.00  0.00    -0.218 NA
ATOM     22  H   UNL     1     -41.555  44.469  24.932  1.00  0.00     0.106 H 
ATOM     23  C   UNL     1     -46.036  41.748  26.427  1.00  0.00     0.019 A 
ATOM     24  H   UNL     1     -46.643  40.953  26.842  1.00  0.00     0.083 H 
BRANCH  15  25
ATOM     25  N   UNL     1     -45.709  45.868  24.641  1.00  0.00    -0.383 N 
ATOM     26  H   UNL     1     -45.250  46.755  24.433  1.00  0.00     0.158 HD
ATOM     27  H   UNL     1     -46.358  45.523  23.946  1.00  0.00     0.158 HD
ENDBRANCH  15  25
BRANCH  20  28
ATOM     28  C   UNL     1     -47.756  43.482  25.877  1.00  0.00     0.091 A 
ATOM     29  C   UNL     1     -48.632  43.354  26.951  1.00  0.00     0.053 A 
ATOM     30  N   UNL     1     -48.144  44.088  24.724  1.00  0.00    -0.253 NA
ATOM     31  N   UNL     1     -49.907  43.822  26.932  1.00  0.00    -0.261 NA
ATOM     32  H   UNL     1     -48.344  42.857  27.872  1.00  0.00     0.086 H 
ATOM     33  C   UNL     1     -49.415  44.558  24.706  1.00  0.00     0.046 A 
ATOM     34  C   UNL     1     -50.276  44.430  25.784  1.00  0.00     0.045 A 
ATOM     35  H   UNL     1     -49.729  45.049  23.791  1.00  0.00     0.086 H 
ATOM     36  H   UNL     1     -51.289  44.811  25.749  1.00  0.00     0.086 H 
ENDBRANCH  20  28
ENDBRANCH   5  14
BRANCH   9  37
ATOM     37  O   UNL     1     -43.622  39.084  30.161  1.00  0.00    -0.387 OA
ATOM     38  H   UNL     1     -44.142  38.295  30.411  1.00  0.00     0.211 HD
ENDBRANCH   9  37
ENDBRANCH   1   4
BRANCH   1  39
ATOM     39  O   UNL     1     -46.889  37.908  27.219  1.00  0.00    -0.491 OA
BRANCH  39  40
ATOM     40  C   UNL     1     -47.346  36.659  26.899  1.00  0.00     0.121 A 
ATOM     41  C   UNL     1     -48.599  36.348  27.422  1.00  0.00    -0.019 A 
ATOM     42  C   UNL     1     -46.680  35.715  26.113  1.00  0.00     0.007 A 
ATOM     43  C   UNL     1     -49.178  35.106  27.168  1.00  0.00    -0.049 A 
ATOM     44  H   UNL     1     -49.124  37.076  28.035  1.00  0.00     0.066 H 
ATOM     45  C   UNL     1     -47.234  34.470  25.841  1.00  0.00     0.076 A 
ATOM     46  H   UNL     1     -45.705  35.922  25.685  1.00  0.00     0.069 H 
ATOM     47  C   UNL     1     -48.499  34.166  26.378  1.00  0.00     0.001 A 
ATOM     48  H   UNL     1     -50.154  34.880  27.587  1.00  0.00     0.063 H 
ATOM     49  N   UNL     1     -46.548  33.601  25.077  1.00  0.00    -0.231 NA
ATOM     50  C   UNL     1     -49.040  32.909  26.100  1.00  0.00    -0.049 A 
ATOM     51  C   UNL     1     -47.083  32.388  24.807  1.00  0.00     0.129 A 
ATOM     52  C   UNL     1     -48.324  32.013  25.311  1.00  0.00    -0.019 A 
ATOM     53  H   UNL     1     -50.009  32.617  26.495  1.00  0.00     0.063 H 
ATOM     54  H   UNL     1     -48.732  31.031  25.105  1.00  0.00     0.066 H 
BRANCH  51  55
ATOM     55  N   UNL     1     -46.345  31.486  24.017  1.00  0.00    -0.356 N 
ATOM     56  C   UNL     1     -46.732  30.153  23.657  1.00  0.00     0.021 C 
ATOM     57  C   UNL     1     -45.868  31.776  22.694  1.00  0.00     0.021 C 
ATOM     58  C   UNL     1     -45.718  30.261  22.514  1.00  0.00    -0.018 C 
ATOM     59  H   UNL     1     -47.779  30.082  23.341  1.00  0.00     0.049 H 
ATOM     60  H   UNL     1     -46.506  29.409  24.424  1.00  0.00     0.049 H 
ATOM     61  H   UNL     1     -46.625  32.243  22.056  1.00  0.00     0.049 H 
ATOM     62  H   UNL     1     -44.939  32.352  22.683  1.00  0.00     0.049 H 
ATOM     63  H   UNL     1     -46.042  29.862  21.550  1.00  0.00     0.030 H 
ATOM     64  H   UNL     1     -44.721  29.874  22.757  1.00  0.00     0.030 H 
ENDBRANCH  51  55
ENDBRANCH  39  40
ENDBRANCH   1  39
TORSDOF 8
ENDMDL
MODEL 6
REMARK VINA RESULT:      -8.9      2.650      3.683
REMARK SMILES Nc1ncnc2c1c(-c1cnccn1)cn2[C@@H]1O[C@H](COc2ccc3ccc(N4CCC4)nc3c2)[C@@H](O)[C@@H]1F
REMARK SMILES IDX 20 1 19 4 17 5 18 6 38 7 36 9 39 10 16 14 2 15 3 16 7 17
REMARK SMILES IDX 4 18 6 19 8 20 5 21 15 23 1 25 9 28 10 29 14 30 11 31 13 33
REMARK SMILES IDX 12 34 37 37 21 39 22 40 23 41 35 42 24 43 34 45 25 47 33 49
REMARK SMILES IDX 26 50 28 51 27 52 29 55 30 56 32 57 31 58
REMARK H PARENT 20 2 20 3 17 8 38 11 19 12 36 13 4 22 15 24 1 26 1 27 10 32
REMARK H PARENT 13 35 12 36 37 38 23 44 35 46 24 48 26 53 27 54 30 59 30 60
REMARK H PARENT 32 61 32 62 31 63 31 64
REMARK Flexibility Score: inf
ROOT
ATOM      1  C   UNL     1     -48.088  35.056  26.992  1.00  0.00     0.117 C 
ATOM      2  H   UNL     1     -48.279  35.238  25.927  1.00  0.00     0.073 H 
ATOM      3  H   UNL     1     -48.897  35.469  27.605  1.00  0.00     0.073 H 
ENDROOT
BRANCH   1   4
ATOM      4  C   UNL     1     -46.762  35.702  27.395  1.00  0.00     0.123 C 
ATOM      5  C   UNL     1     -45.803  37.826  27.375  1.00  0.00     0.169 C 
ATOM      6  O   UNL     1     -46.476  36.846  26.560  1.00  0.00    -0.345 OA
ATOM      7  C   UNL     1     -45.704  37.276  28.791  1.00  0.00     0.173 C 
ATOM      8  H   UNL     1     -44.795  37.943  26.960  1.00  0.00     0.088 H 
ATOM      9  C   UNL     1     -46.774  36.208  28.832  1.00  0.00     0.119 C 
ATOM     10  F   UNL     1     -45.913  38.204  29.754  1.00  0.00    -0.239 F 
ATOM     11  H   UNL     1     -44.716  36.837  28.968  1.00  0.00     0.074 H 
ATOM     12  H   UNL     1     -45.947  34.982  27.242  1.00  0.00     0.067 H 
ATOM     13  H   UNL     1     -47.742  36.623  29.124  1.00  0.00     0.066 H 
BRANCH   5  14
ATOM     14  N   UNL     1     -46.467  39.115  27.233  1.00  0.00    -0.302 N 
ATOM     15  C   UNL     1     -46.580  42.479  26.130  1.00  0.00     0.137 A 
ATOM     16  N   UNL     1     -45.376  42.621  25.544  1.00  0.00    -0.219 NA
ATOM     17  C   UNL     1     -46.918  41.246  26.715  1.00  0.00     0.071 A 
ATOM     18  C   UNL     1     -44.553  41.560  25.520  1.00  0.00     0.120 A 
ATOM     19  C   UNL     1     -45.967  40.235  26.615  1.00  0.00     0.148 A 
ATOM     20  C   UNL     1     -48.038  40.706  27.426  1.00  0.00     0.033 A 
ATOM     21  N   UNL     1     -44.767  40.331  26.018  1.00  0.00    -0.218 NA
ATOM     22  H   UNL     1     -43.594  41.718  25.036  1.00  0.00     0.106 H 
ATOM     23  C   UNL     1     -47.722  39.392  27.730  1.00  0.00     0.019 A 
ATOM     24  H   UNL     1     -48.273  38.636  28.276  1.00  0.00     0.083 H 
BRANCH  15  25
ATOM     25  N   UNL     1     -47.416  43.588  26.129  1.00  0.00    -0.383 N 
ATOM     26  H   UNL     1     -47.184  44.243  26.876  1.00  0.00     0.158 HD
ATOM     27  H   UNL     1     -47.490  43.977  25.198  1.00  0.00     0.158 HD
ENDBRANCH  15  25
BRANCH  20  28
ATOM     28  C   UNL     1     -49.283  41.346  27.829  1.00  0.00     0.091 A 
ATOM     29  C   UNL     1     -50.385  41.431  26.981  1.00  0.00     0.053 A 
ATOM     30  N   UNL     1     -49.329  41.851  29.090  1.00  0.00    -0.253 NA
ATOM     31  N   UNL     1     -51.561  42.003  27.344  1.00  0.00    -0.261 NA
ATOM     32  H   UNL     1     -50.359  41.049  25.966  1.00  0.00     0.086 H 
ATOM     33  C   UNL     1     -50.505  42.420  29.453  1.00  0.00     0.046 A 
ATOM     34  C   UNL     1     -51.595  42.494  28.602  1.00  0.00     0.045 A 
ATOM     35  H   UNL     1     -50.549  42.819  30.461  1.00  0.00     0.086 H 
ATOM     36  H   UNL     1     -52.526  42.953  28.911  1.00  0.00     0.086 H 
ENDBRANCH  20  28
ENDBRANCH   5  14
BRANCH   9  37
ATOM     37  O   UNL     1     -46.457  35.172  29.759  1.00  0.00    -0.387 OA
ATOM     38  H   UNL     1     -45.927  34.511  29.272  1.00  0.00     0.211 HD
ENDBRANCH   9  37
ENDBRANCH   1   4
BRANCH   1  39
ATOM     39  O   UNL     1     -47.994  33.644  27.222  1.00  0.00    -0.491 OA
BRANCH  39  40
ATOM     40  C   UNL     1     -47.778  32.850  26.129  1.00  0.00     0.121 A 
ATOM     41  C   UNL     1     -46.513  32.980  25.558  1.00  0.00    -0.019 A 
ATOM     42  C   UNL     1     -48.692  31.954  25.570  1.00  0.00     0.007 A 
ATOM     43  C   UNL     1     -46.168  32.225  24.439  1.00  0.00    -0.049 A 
ATOM     44  H   UNL     1     -45.796  33.676  25.986  1.00  0.00     0.066 H 
ATOM     45  C   UNL     1     -48.374  31.187  24.455  1.00  0.00     0.076 A 
ATOM     46  H   UNL     1     -49.685  31.823  25.987  1.00  0.00     0.069 H 
ATOM     47  C   UNL     1     -47.094  31.328  23.886  1.00  0.00     0.001 A 
ATOM     48  H   UNL     1     -45.178  32.341  24.006  1.00  0.00     0.063 H 
ATOM     49  N   UNL     1     -49.292  30.338  23.960  1.00  0.00    -0.231 NA
ATOM     50  C   UNL     1     -46.791  30.555  22.763  1.00  0.00    -0.049 A 
ATOM     51  C   UNL     1     -48.988  29.587  22.877  1.00  0.00     0.129 A 
ATOM     52  C   UNL     1     -47.747  29.680  22.255  1.00  0.00    -0.019 A 
ATOM     53  H   UNL     1     -45.822  30.628  22.278  1.00  0.00     0.063 H 
ATOM     54  H   UNL     1     -47.523  29.089  21.375  1.00  0.00     0.066 H 
BRANCH  51  55
ATOM     55  N   UNL     1     -49.966  28.715  22.363  1.00  0.00    -0.356 N 
ATOM     56  C   UNL     1     -49.835  27.868  21.214  1.00  0.00     0.021 C 
ATOM     57  C   UNL     1     -50.612  27.687  23.130  1.00  0.00     0.021 C 
ATOM     58  C   UNL     1     -51.000  27.056  21.788  1.00  0.00    -0.018 C 
ATOM     59  H   UNL     1     -48.876  27.339  21.179  1.00  0.00     0.049 H 
ATOM     60  H   UNL     1     -50.032  28.378  20.269  1.00  0.00     0.049 H 
ATOM     61  H   UNL     1     -49.914  27.095  23.732  1.00  0.00     0.049 H 
ATOM     62  H   UNL     1     -51.439  28.054  23.742  1.00  0.00     0.049 H 
ATOM     63  H   UNL     1     -50.901  25.970  21.726  1.00  0.00     0.030 H 
ATOM     64  H   UNL     1     -51.987  27.358  21.417  1.00  0.00     0.030 H 
ENDBRANCH  51  55
ENDBRANCH  39  40
ENDBRANCH   1  39
TORSDOF 8
ENDMDL
MODEL 7
REMARK VINA RESULT:      -8.7      5.044      8.817
REMARK SMILES Nc1ncnc2c1c(-c1cnccn1)cn2[C@@H]1O[C@H](COc2ccc3ccc(N4CCC4)nc3c2)[C@@H](O)[C@@H]1F
REMARK SMILES IDX 20 1 19 4 17 5 18 6 38 7 36 9 39 10 16 14 2 15 3 16 7 17
REMARK SMILES IDX 4 18 6 19 8 20 5 21 15 23 1 25 9 28 10 29 14 30 11 31 13 33
REMARK SMILES IDX 12 34 37 37 21 39 22 40 23 41 35 42 24 43 34 45 25 47 33 49
REMARK SMILES IDX 26 50 28 51 27 52 29 55 30 56 32 57 31 58
REMARK H PARENT 20 2 20 3 17 8 38 11 19 12 36 13 4 22 15 24 1 26 1 27 10 32
REMARK H PARENT 13 35 12 36 37 38 23 44 35 46 24 48 26 53 27 54 30 59 30 60
REMARK H PARENT 32 61 32 62 31 63 31 64
REMARK Flexibility Score: inf
ROOT
ATOM      1  C   UNL     1     -43.311  42.958  24.732  1.00  0.00     0.117 C 
ATOM      2  H   UNL     1     -42.388  42.832  24.153  1.00  0.00     0.073 H 
ATOM      3  H   UNL     1     -44.013  42.143  24.522  1.00  0.00     0.073 H 
ENDROOT
BRANCH   1   4
ATOM      4  C   UNL     1     -43.962  44.296  24.378  1.00  0.00     0.123 C 
ATOM      5  C   UNL     1     -46.110  45.190  24.263  1.00  0.00     0.169 C 
ATOM      6  O   UNL     1     -45.283  44.093  23.830  1.00  0.00    -0.345 OA
ATOM      7  C   UNL     1     -45.269  46.094  25.154  1.00  0.00     0.173 C 
ATOM      8  H   UNL     1     -46.402  45.740  23.360  1.00  0.00     0.088 H 
ATOM      9  C   UNL     1     -44.132  45.200  25.593  1.00  0.00     0.119 C 
ATOM     10  F   UNL     1     -45.939  46.583  26.223  1.00  0.00    -0.239 F 
ATOM     11  H   UNL     1     -44.888  46.950  24.586  1.00  0.00     0.074 H 
ATOM     12  H   UNL     1     -43.366  44.794  23.602  1.00  0.00     0.067 H 
ATOM     13  H   UNL     1     -44.387  44.644  26.499  1.00  0.00     0.066 H 
BRANCH   5  14
ATOM     14  N   UNL     1     -47.337  44.671  24.852  1.00  0.00    -0.302 N 
ATOM     15  C   UNL     1     -50.859  44.621  25.226  1.00  0.00     0.137 A 
ATOM     16  N   UNL     1     -51.243  45.594  24.379  1.00  0.00    -0.219 NA
ATOM     17  C   UNL     1     -49.490  44.337  25.370  1.00  0.00     0.071 A 
ATOM     18  C   UNL     1     -50.294  46.240  23.681  1.00  0.00     0.120 A 
ATOM     19  C   UNL     1     -48.619  45.085  24.583  1.00  0.00     0.148 A 
ATOM     20  C   UNL     1     -48.692  43.433  26.144  1.00  0.00     0.033 A 
ATOM     21  N   UNL     1     -48.966  46.047  23.711  1.00  0.00    -0.218 NA
ATOM     22  H   UNL     1     -50.649  47.016  23.009  1.00  0.00     0.106 H 
ATOM     23  C   UNL     1     -47.371  43.671  25.799  1.00  0.00     0.019 A 
ATOM     24  H   UNL     1     -46.451  43.229  26.162  1.00  0.00     0.083 H 
BRANCH  15  25
ATOM     25  N   UNL     1     -51.862  43.961  25.924  1.00  0.00    -0.383 N 
ATOM     26  H   UNL     1     -51.664  43.912  26.924  1.00  0.00     0.158 HD
ATOM     27  H   UNL     1     -52.772  44.319  25.664  1.00  0.00     0.158 HD
ENDBRANCH  15  25
BRANCH  20  28
ATOM     28  C   UNL     1     -49.097  42.456  27.146  1.00  0.00     0.091 A 
ATOM     29  C   UNL     1     -48.713  41.119  27.079  1.00  0.00     0.053 A 
ATOM     30  N   UNL     1     -49.864  42.915  28.170  1.00  0.00    -0.253 NA
ATOM     31  N   UNL     1     -49.060  40.197  28.014  1.00  0.00    -0.261 NA
ATOM     32  H   UNL     1     -48.116  40.733  26.259  1.00  0.00     0.086 H 
ATOM     33  C   UNL     1     -50.208  41.995  29.105  1.00  0.00     0.046 A 
ATOM     34  C   UNL     1     -49.815  40.669  29.030  1.00  0.00     0.045 A 
ATOM     35  H   UNL     1     -50.815  42.357  29.927  1.00  0.00     0.086 H 
ATOM     36  H   UNL     1     -50.101  39.948  29.787  1.00  0.00     0.086 H 
ENDBRANCH  20  28
ENDBRANCH   5  14
BRANCH   9  37
ATOM     37  O   UNL     1     -42.946  45.943  25.868  1.00  0.00    -0.387 OA
ATOM     38  H   UNL     1     -42.917  46.676  25.224  1.00  0.00     0.211 HD
ENDBRANCH   9  37
ENDBRANCH   1   4
BRANCH   1  39
ATOM     39  O   UNL     1     -42.996  42.962  26.131  1.00  0.00    -0.491 OA
BRANCH  39  40
ATOM     40  C   UNL     1     -43.405  41.881  26.862  1.00  0.00     0.121 A 
ATOM     41  C   UNL     1     -42.735  41.711  28.072  1.00  0.00    -0.019 A 
ATOM     42  C   UNL     1     -44.408  40.977  26.503  1.00  0.00     0.007 A 
ATOM     43  C   UNL     1     -43.060  40.647  28.910  1.00  0.00    -0.049 A 
ATOM     44  H   UNL     1     -41.953  42.409  28.359  1.00  0.00     0.066 H 
ATOM     45  C   UNL     1     -44.755  39.908  27.320  1.00  0.00     0.076 A 
ATOM     46  H   UNL     1     -44.954  41.078  25.571  1.00  0.00     0.069 H 
ATOM     47  C   UNL     1     -44.068  39.744  28.538  1.00  0.00     0.001 A 
ATOM     48  H   UNL     1     -42.525  40.527  29.848  1.00  0.00     0.063 H 
ATOM     49  N   UNL     1     -45.729  39.070  26.925  1.00  0.00    -0.231 NA
ATOM     50  C   UNL     1     -44.424  38.662  29.347  1.00  0.00    -0.049 A 
ATOM     51  C   UNL     1     -46.073  38.028  27.717  1.00  0.00     0.129 A 
ATOM     52  C   UNL     1     -45.432  37.797  28.930  1.00  0.00    -0.019 A 
ATOM     53  H   UNL     1     -43.923  38.483  30.294  1.00  0.00     0.063 H 
ATOM     54  H   UNL     1     -45.701  36.947  29.546  1.00  0.00     0.066 H 
BRANCH  51  55
ATOM     55  N   UNL     1     -47.085  37.153  27.281  1.00  0.00    -0.356 N 
ATOM     56  C   UNL     1     -46.899  35.912  26.588  1.00  0.00     0.021 C 
ATOM     57  C   UNL     1     -48.097  36.601  28.137  1.00  0.00     0.021 C 
ATOM     58  C   UNL     1     -48.314  35.545  27.047  1.00  0.00    -0.018 C 
ATOM     59  H   UNL     1     -46.100  35.297  27.017  1.00  0.00     0.049 H 
ATOM     60  H   UNL     1     -46.765  36.027  25.511  1.00  0.00     0.049 H 
ATOM     61  H   UNL     1     -47.699  36.213  29.081  1.00  0.00     0.049 H 
ATOM     62  H   UNL     1     -48.934  37.280  28.316  1.00  0.00     0.049 H 
ATOM     63  H   UNL     1     -48.450  34.519  27.399  1.00  0.00     0.030 H 
ATOM     64  H   UNL     1     -49.102  35.795  26.327  1.00  0.00     0.030 H 
ENDBRANCH  51  55
ENDBRANCH  39  40
ENDBRANCH   1  39
TORSDOF 8
ENDMDL
