MODEL 1
REMARK VINA RESULT:     -10.7      0.000      0.000
REMARK SMILES O=C(NCc1cnc2cc(CNCC3CCC3)[nH]c2c1)c1cc(=O)n2ccccc2n1
REMARK SMILES IDX 5 1 6 2 7 3 8 4 9 5 10 6 18 7 19 8 20 9 4 14 3 17 1 18 2 19
REMARK SMILES IDX 21 21 22 22 31 23 23 24 30 26 24 27 25 28 29 29 26 30 28 31
REMARK SMILES IDX 27 33 11 37 12 40 13 42 14 45 15 46 17 47 16 49
REMARK H PARENT 6 10 9 11 18 12 20 13 4 15 4 16 3 20 22 25 29 32 26 34 28 35
REMARK H PARENT 27 36 11 38 11 39 12 41 13 43 13 44 14 48 15 50 15 51 17 52
REMARK H PARENT 17 53 16 54 16 55
REMARK Flexibility Score: inf
ROOT
ATOM      1  C   UNL     1     -47.777  34.803  26.623  1.00  0.00    -0.008 A 
ATOM      2  C   UNL     1     -46.503  34.708  26.066  1.00  0.00     0.033 A 
ATOM      3  N   UNL     1     -46.045  33.701  25.289  1.00  0.00    -0.254 NA
ATOM      4  C   UNL     1     -46.946  32.718  25.053  1.00  0.00     0.088 A 
ATOM      5  C   UNL     1     -46.801  31.536  24.291  1.00  0.00    -0.014 A 
ATOM      6  C   UNL     1     -48.001  30.847  24.340  1.00  0.00     0.031 A 
ATOM      7  N   UNL     1     -48.861  31.590  25.117  1.00  0.00    -0.356 N 
ATOM      8  C   UNL     1     -48.240  32.733  25.561  1.00  0.00     0.065 A 
ATOM      9  C   UNL     1     -48.695  33.780  26.362  1.00  0.00    -0.030 A 
ATOM     10  H   UNL     1     -45.766  35.490  26.240  1.00  0.00     0.084 H 
ATOM     11  H   UNL     1     -45.910  31.219  23.766  1.00  0.00     0.067 H 
ATOM     12  H   UNL     1     -49.815  31.338  25.337  1.00  0.00     0.166 HD
ATOM     13  H   UNL     1     -49.705  33.804  26.758  1.00  0.00     0.065 H 
ENDROOT
BRANCH   1  14
ATOM     14  C   UNL     1     -48.167  35.990  27.458  1.00  0.00     0.045 C 
ATOM     15  H   UNL     1     -48.335  35.694  28.499  1.00  0.00     0.054 H 
ATOM     16  H   UNL     1     -49.107  36.416  27.087  1.00  0.00     0.054 H 
BRANCH  14  17
ATOM     17  N   UNL     1     -47.129  36.990  27.459  1.00  0.00    -0.347 N 
ATOM     18  O   UNL     1     -46.538  36.778  29.673  1.00  0.00    -0.268 OA
ATOM     19  C   UNL     1     -46.435  37.343  28.591  1.00  0.00     0.270 C 
ATOM     20  H   UNL     1     -47.024  37.610  26.661  1.00  0.00     0.164 HD
BRANCH  19  21
ATOM     21  C   UNL     1     -45.532  38.531  28.360  1.00  0.00     0.136 A 
ATOM     22  C   UNL     1     -45.804  39.288  27.296  1.00  0.00     0.035 A 
ATOM     23  N   UNL     1     -44.495  38.753  29.239  1.00  0.00    -0.225 NA
ATOM     24  C   UNL     1     -44.946  40.449  27.030  1.00  0.00     0.258 A 
ATOM     25  H   UNL     1     -46.621  39.101  26.611  1.00  0.00     0.071 H 
ATOM     26  C   UNL     1     -43.737  39.779  28.998  1.00  0.00     0.140 A 
ATOM     27  O   UNL     1     -45.190  41.153  26.052  1.00  0.00    -0.269 OA
ATOM     28  N   UNL     1     -43.908  40.650  27.928  1.00  0.00    -0.268 N 
ATOM     29  C   UNL     1     -42.600  40.058  29.920  1.00  0.00    -0.019 A 
ATOM     30  C   UNL     1     -43.050  41.729  27.740  1.00  0.00     0.014 A 
ATOM     31  C   UNL     1     -41.801  41.109  29.698  1.00  0.00    -0.057 A 
ATOM     32  H   UNL     1     -42.456  39.384  30.756  1.00  0.00     0.066 H 
ATOM     33  C   UNL     1     -42.031  41.974  28.573  1.00  0.00    -0.045 A 
ATOM     34  H   UNL     1     -43.243  42.370  26.882  1.00  0.00     0.082 H 
ATOM     35  H   UNL     1     -40.967  41.327  30.357  1.00  0.00     0.062 H 
ATOM     36  H   UNL     1     -41.368  42.819  28.417  1.00  0.00     0.064 H 
ENDBRANCH  19  21
ENDBRANCH  14  17
ENDBRANCH   1  14
BRANCH   6  37
ATOM     37  C   UNL     1     -48.406  29.557  23.718  1.00  0.00     0.036 C 
ATOM     38  H   UNL     1     -49.493  29.429  23.793  1.00  0.00     0.049 H 
ATOM     39  H   UNL     1     -48.144  29.577  22.653  1.00  0.00     0.049 H 
BRANCH  37  40
ATOM     40  N   UNL     1     -47.710  28.468  24.390  1.00  0.00    -0.311 NA
ATOM     41  H   UNL     1     -46.936  28.851  24.929  1.00  0.00     0.123 HD
BRANCH  40  42
ATOM     42  C   UNL     1     -48.611  27.718  25.264  1.00  0.00    -0.002 C 
ATOM     43  H   UNL     1     -48.705  28.227  26.230  1.00  0.00     0.043 H 
ATOM     44  H   UNL     1     -49.610  27.678  24.814  1.00  0.00     0.043 H 
BRANCH  42  45
ATOM     45  C   UNL     1     -48.135  26.286  25.500  1.00  0.00    -0.029 C 
ATOM     46  C   UNL     1     -48.622  25.492  26.744  1.00  0.00    -0.049 C 
ATOM     47  C   UNL     1     -46.689  26.033  26.014  1.00  0.00    -0.049 C 
ATOM     48  H   UNL     1     -48.325  25.713  24.578  1.00  0.00     0.032 H 
ATOM     49  C   UNL     1     -47.247  24.789  26.739  1.00  0.00    -0.053 C 
ATOM     50  H   UNL     1     -49.484  24.841  26.581  1.00  0.00     0.027 H 
ATOM     51  H   UNL     1     -48.797  26.088  27.646  1.00  0.00     0.027 H 
ATOM     52  H   UNL     1     -46.296  26.794  26.698  1.00  0.00     0.027 H 
ATOM     53  H   UNL     1     -45.941  25.834  25.242  1.00  0.00     0.027 H 
ATOM     54  H   UNL     1     -47.220  23.877  26.132  1.00  0.00     0.027 H 
ATOM     55  H   UNL     1     -46.816  24.578  27.720  1.00  0.00     0.027 H 
ENDBRANCH  42  45
ENDBRANCH  40  42
ENDBRANCH  37  40
ENDBRANCH   6  37
TORSDOF 7
ENDMDL
MODEL 2
REMARK VINA RESULT:     -10.0      1.649      2.384
REMARK SMILES O=C(NCc1cnc2cc(CNCC3CCC3)[nH]c2c1)c1cc(=O)n2ccccc2n1
REMARK SMILES IDX 5 1 6 2 7 3 8 4 9 5 10 6 18 7 19 8 20 9 4 14 3 17 1 18 2 19
REMARK SMILES IDX 21 21 22 22 31 23 23 24 30 26 24 27 25 28 29 29 26 30 28 31
REMARK SMILES IDX 27 33 11 37 12 40 13 42 14 45 15 46 17 47 16 49
REMARK H PARENT 6 10 9 11 18 12 20 13 4 15 4 16 3 20 22 25 29 32 26 34 28 35
REMARK H PARENT 27 36 11 38 11 39 12 41 13 43 13 44 14 48 15 50 15 51 17 52
REMARK H PARENT 17 53 16 54 16 55
REMARK Flexibility Score: inf
ROOT
ATOM      1  C   UNL     1     -46.631  35.187  27.941  1.00  0.00    -0.008 A 
ATOM      2  C   UNL     1     -47.916  35.592  27.583  1.00  0.00     0.033 A 
ATOM      3  N   UNL     1     -48.806  34.876  26.860  1.00  0.00    -0.254 NA
ATOM      4  C   UNL     1     -48.365  33.654  26.475  1.00  0.00     0.088 A 
ATOM      5  C   UNL     1     -49.030  32.661  25.720  1.00  0.00    -0.014 A 
ATOM      6  C   UNL     1     -48.173  31.582  25.587  1.00  0.00     0.031 A 
ATOM      7  N   UNL     1     -47.007  31.908  26.244  1.00  0.00    -0.356 N 
ATOM      8  C   UNL     1     -47.102  33.166  26.792  1.00  0.00     0.065 A 
ATOM      9  C   UNL     1     -46.197  33.919  27.538  1.00  0.00    -0.030 A 
ATOM     10  H   UNL     1     -48.291  36.567  27.887  1.00  0.00     0.084 H 
ATOM     11  H   UNL     1     -50.028  32.730  25.312  1.00  0.00     0.067 H 
ATOM     12  H   UNL     1     -46.192  31.316  26.317  1.00  0.00     0.166 HD
ATOM     13  H   UNL     1     -45.211  33.544  27.796  1.00  0.00     0.065 H 
ENDROOT
BRANCH   1  14
ATOM     14  C   UNL     1     -45.744  36.076  28.766  1.00  0.00     0.045 C 
ATOM     15  H   UNL     1     -44.770  35.604  28.934  1.00  0.00     0.054 H 
ATOM     16  H   UNL     1     -46.195  36.245  29.752  1.00  0.00     0.054 H 
BRANCH  14  17
ATOM     17  N   UNL     1     -45.503  37.332  28.103  1.00  0.00    -0.347 N 
ATOM     18  O   UNL     1     -44.465  38.385  29.866  1.00  0.00    -0.268 OA
ATOM     19  C   UNL     1     -44.930  38.410  28.733  1.00  0.00     0.270 C 
ATOM     20  H   UNL     1     -45.941  37.522  27.207  1.00  0.00     0.164 HD
BRANCH  19  21
ATOM     21  C   UNL     1     -44.950  39.652  27.875  1.00  0.00     0.136 A 
ATOM     22  C   UNL     1     -46.131  39.997  27.356  1.00  0.00     0.035 A 
ATOM     23  N   UNL     1     -43.773  40.336  27.674  1.00  0.00    -0.225 NA
ATOM     24  C   UNL     1     -46.194  41.194  26.509  1.00  0.00     0.258 A 
ATOM     25  H   UNL     1     -47.049  39.449  27.520  1.00  0.00     0.071 H 
ATOM     26  C   UNL     1     -43.833  41.392  26.921  1.00  0.00     0.140 A 
ATOM     27  O   UNL     1     -47.278  41.520  26.028  1.00  0.00    -0.269 OA
ATOM     28  N   UNL     1     -44.995  41.864  26.320  1.00  0.00    -0.268 N 
ATOM     29  C   UNL     1     -42.582  42.163  26.672  1.00  0.00    -0.019 A 
ATOM     30  C   UNL     1     -44.975  43.007  25.527  1.00  0.00     0.014 A 
ATOM     31  C   UNL     1     -42.614  43.257  25.901  1.00  0.00    -0.057 A 
ATOM     32  H   UNL     1     -41.671  41.803  27.134  1.00  0.00     0.066 H 
ATOM     33  C   UNL     1     -43.848  43.695  25.308  1.00  0.00    -0.045 A 
ATOM     34  H   UNL     1     -45.920  43.319  25.088  1.00  0.00     0.082 H 
ATOM     35  H   UNL     1     -41.713  43.831  25.707  1.00  0.00     0.062 H 
ATOM     36  H   UNL     1     -43.845  44.586  24.688  1.00  0.00     0.064 H 
ENDBRANCH  19  21
ENDBRANCH  14  17
ENDBRANCH   1  14
BRANCH   6  37
ATOM     37  C   UNL     1     -48.357  30.274  24.901  1.00  0.00     0.036 C 
ATOM     38  H   UNL     1     -49.208  30.329  24.210  1.00  0.00     0.049 H 
ATOM     39  H   UNL     1     -47.461  30.052  24.310  1.00  0.00     0.049 H 
BRANCH  37  40
ATOM     40  N   UNL     1     -48.573  29.240  25.904  1.00  0.00    -0.311 NA
ATOM     41  H   UNL     1     -49.477  29.390  26.347  1.00  0.00     0.123 HD
BRANCH  40  42
ATOM     42  C   UNL     1     -48.517  27.904  25.313  1.00  0.00    -0.002 C 
ATOM     43  H   UNL     1     -49.518  27.595  24.991  1.00  0.00     0.043 H 
ATOM     44  H   UNL     1     -47.877  27.922  24.423  1.00  0.00     0.043 H 
BRANCH  42  45
ATOM     45  C   UNL     1     -47.961  26.862  26.281  1.00  0.00    -0.029 C 
ATOM     46  C   UNL     1     -46.754  25.972  25.869  1.00  0.00    -0.049 C 
ATOM     47  C   UNL     1     -48.743  25.538  26.515  1.00  0.00    -0.049 C 
ATOM     48  H   UNL     1     -47.758  27.368  27.238  1.00  0.00     0.032 H 
ATOM     49  C   UNL     1     -47.375  24.859  26.742  1.00  0.00    -0.053 C 
ATOM     50  H   UNL     1     -45.773  26.330  26.191  1.00  0.00     0.027 H 
ATOM     51  H   UNL     1     -46.703  25.709  24.808  1.00  0.00     0.027 H 
ATOM     52  H   UNL     1     -49.280  25.151  25.642  1.00  0.00     0.027 H 
ATOM     53  H   UNL     1     -49.420  25.535  27.374  1.00  0.00     0.027 H 
ATOM     54  H   UNL     1     -47.041  24.879  27.785  1.00  0.00     0.027 H 
ATOM     55  H   UNL     1     -47.279  23.842  26.355  1.00  0.00     0.027 H 
ENDBRANCH  42  45
ENDBRANCH  40  42
ENDBRANCH  37  40
ENDBRANCH   6  37
TORSDOF 7
ENDMDL
MODEL 3
REMARK VINA RESULT:      -9.8      2.921     11.423
REMARK SMILES O=C(NCc1cnc2cc(CNCC3CCC3)[nH]c2c1)c1cc(=O)n2ccccc2n1
REMARK SMILES IDX 5 1 6 2 7 3 8 4 9 5 10 6 18 7 19 8 20 9 4 14 3 17 1 18 2 19
REMARK SMILES IDX 21 21 22 22 31 23 23 24 30 26 24 27 25 28 29 29 26 30 28 31
REMARK SMILES IDX 27 33 11 37 12 40 13 42 14 45 15 46 17 47 16 49
REMARK H PARENT 6 10 9 11 18 12 20 13 4 15 4 16 3 20 22 25 29 32 26 34 28 35
REMARK H PARENT 27 36 11 38 11 39 12 41 13 43 13 44 14 48 15 50 15 51 17 52
REMARK H PARENT 17 53 16 54 16 55
REMARK Flexibility Score: inf
ROOT
ATOM      1  C   UNL     1     -46.749  33.539  25.630  1.00  0.00    -0.008 A 
ATOM      2  C   UNL     1     -48.073  33.818  25.961  1.00  0.00     0.033 A 
ATOM      3  N   UNL     1     -48.493  34.604  26.979  1.00  0.00    -0.254 NA
ATOM      4  C   UNL     1     -47.496  35.152  27.714  1.00  0.00     0.088 A 
ATOM      5  C   UNL     1     -47.580  36.011  28.834  1.00  0.00    -0.014 A 
ATOM      6  C   UNL     1     -46.291  36.309  29.239  1.00  0.00     0.031 A 
ATOM      7  N   UNL     1     -45.436  35.645  28.389  1.00  0.00    -0.356 N 
ATOM      8  C   UNL     1     -46.148  34.934  27.452  1.00  0.00     0.065 A 
ATOM      9  C   UNL     1     -45.734  34.121  26.399  1.00  0.00    -0.030 A 
ATOM     10  H   UNL     1     -48.889  33.392  25.380  1.00  0.00     0.084 H 
ATOM     11  H   UNL     1     -48.488  36.370  29.298  1.00  0.00     0.067 H 
ATOM     12  H   UNL     1     -44.427  35.668  28.439  1.00  0.00     0.166 HD
ATOM     13  H   UNL     1     -44.684  33.950  26.182  1.00  0.00     0.065 H 
ENDROOT
BRANCH   1  14
ATOM     14  C   UNL     1     -46.416  32.661  24.457  1.00  0.00     0.045 C 
ATOM     15  H   UNL     1     -45.332  32.550  24.351  1.00  0.00     0.054 H 
ATOM     16  H   UNL     1     -46.786  33.116  23.531  1.00  0.00     0.054 H 
BRANCH  14  17
ATOM     17  N   UNL     1     -46.968  31.340  24.622  1.00  0.00    -0.347 N 
ATOM     18  O   UNL     1     -48.318  31.366  22.758  1.00  0.00    -0.268 OA
ATOM     19  C   UNL     1     -47.924  30.821  23.783  1.00  0.00     0.270 C 
ATOM     20  H   UNL     1     -46.814  30.833  25.488  1.00  0.00     0.164 HD
BRANCH  19  21
ATOM     21  C   UNL     1     -48.459  29.498  24.274  1.00  0.00     0.136 A 
ATOM     22  C   UNL     1     -49.782  29.331  24.214  1.00  0.00     0.035 A 
ATOM     23  N   UNL     1     -47.570  28.562  24.753  1.00  0.00    -0.225 NA
ATOM     24  C   UNL     1     -50.345  28.062  24.689  1.00  0.00     0.258 A 
ATOM     25  H   UNL     1     -50.471  30.076  23.837  1.00  0.00     0.071 H 
ATOM     26  C   UNL     1     -48.072  27.442  25.174  1.00  0.00     0.140 A 
ATOM     27  O   UNL     1     -51.563  27.900  24.637  1.00  0.00    -0.269 OA
ATOM     28  N   UNL     1     -49.429  27.137  25.168  1.00  0.00    -0.268 N 
ATOM     29  C   UNL     1     -47.148  26.400  25.706  1.00  0.00    -0.019 A 
ATOM     30  C   UNL     1     -49.888  25.911  25.638  1.00  0.00     0.014 A 
ATOM     31  C   UNL     1     -47.638  25.235  26.147  1.00  0.00    -0.057 A 
ATOM     32  H   UNL     1     -46.090  26.628  25.717  1.00  0.00     0.066 H 
ATOM     33  C   UNL     1     -49.052  24.979  26.113  1.00  0.00    -0.045 A 
ATOM     34  H   UNL     1     -50.962  25.739  25.603  1.00  0.00     0.082 H 
ATOM     35  H   UNL     1     -46.981  24.465  26.538  1.00  0.00     0.062 H 
ATOM     36  H   UNL     1     -49.422  24.025  26.476  1.00  0.00     0.064 H 
ENDBRANCH  19  21
ENDBRANCH  14  17
ENDBRANCH   1  14
BRANCH   6  37
ATOM     37  C   UNL     1     -45.797  37.165  30.352  1.00  0.00     0.036 C 
ATOM     38  H   UNL     1     -46.644  37.583  30.910  1.00  0.00     0.049 H 
ATOM     39  H   UNL     1     -45.213  36.548  31.045  1.00  0.00     0.049 H 
BRANCH  37  40
ATOM     40  N   UNL     1     -44.968  38.229  29.800  1.00  0.00    -0.311 NA
ATOM     41  H   UNL     1     -44.126  37.820  29.401  1.00  0.00     0.123 HD
BRANCH  40  42
ATOM     42  C   UNL     1     -45.688  38.994  28.785  1.00  0.00    -0.002 C 
ATOM     43  H   UNL     1     -46.533  38.408  28.404  1.00  0.00     0.043 H 
ATOM     44  H   UNL     1     -46.098  39.907  29.233  1.00  0.00     0.043 H 
BRANCH  42  45
ATOM     45  C   UNL     1     -44.793  39.396  27.614  1.00  0.00    -0.029 C 
ATOM     46  C   UNL     1     -43.799  40.583  27.758  1.00  0.00    -0.049 C 
ATOM     47  C   UNL     1     -45.404  40.169  26.412  1.00  0.00    -0.049 C 
ATOM     48  H   UNL     1     -44.266  38.492  27.269  1.00  0.00     0.032 H 
ATOM     49  C   UNL     1     -44.032  40.860  26.257  1.00  0.00    -0.053 C 
ATOM     50  H   UNL     1     -42.777  40.312  28.034  1.00  0.00     0.027 H 
ATOM     51  H   UNL     1     -44.132  41.402  28.404  1.00  0.00     0.027 H 
ATOM     52  H   UNL     1     -46.213  40.863  26.664  1.00  0.00     0.027 H 
ATOM     53  H   UNL     1     -45.719  39.552  25.565  1.00  0.00     0.027 H 
ATOM     54  H   UNL     1     -43.340  40.324  25.597  1.00  0.00     0.027 H 
ATOM     55  H   UNL     1     -44.060  41.912  25.966  1.00  0.00     0.027 H 
ENDBRANCH  42  45
ENDBRANCH  40  42
ENDBRANCH  37  40
ENDBRANCH   6  37
TORSDOF 7
ENDMDL
MODEL 4
REMARK VINA RESULT:      -9.8      1.824      3.137
REMARK SMILES O=C(NCc1cnc2cc(CNCC3CCC3)[nH]c2c1)c1cc(=O)n2ccccc2n1
REMARK SMILES IDX 5 1 6 2 7 3 8 4 9 5 10 6 18 7 19 8 20 9 4 14 3 17 1 18 2 19
REMARK SMILES IDX 21 21 22 22 31 23 23 24 30 26 24 27 25 28 29 29 26 30 28 31
REMARK SMILES IDX 27 33 11 37 12 40 13 42 14 45 15 46 17 47 16 49
REMARK H PARENT 6 10 9 11 18 12 20 13 4 15 4 16 3 20 22 25 29 32 26 34 28 35
REMARK H PARENT 27 36 11 38 11 39 12 41 13 43 13 44 14 48 15 50 15 51 17 52
REMARK H PARENT 17 53 16 54 16 55
REMARK Flexibility Score: inf
ROOT
ATOM      1  C   UNL     1     -46.439  35.896  28.510  1.00  0.00    -0.008 A 
ATOM      2  C   UNL     1     -47.799  35.869  28.205  1.00  0.00     0.033 A 
ATOM      3  N   UNL     1     -48.385  35.131  27.235  1.00  0.00    -0.254 NA
ATOM      4  C   UNL     1     -47.531  34.358  26.523  1.00  0.00     0.088 A 
ATOM      5  C   UNL     1     -47.804  33.476  25.453  1.00  0.00    -0.014 A 
ATOM      6  C   UNL     1     -46.607  32.906  25.054  1.00  0.00     0.031 A 
ATOM      7  N   UNL     1     -45.622  33.431  25.859  1.00  0.00    -0.356 N 
ATOM      8  C   UNL     1     -46.162  34.317  26.762  1.00  0.00     0.065 A 
ATOM      9  C   UNL     1     -45.575  35.085  27.765  1.00  0.00    -0.030 A 
ATOM     10  H   UNL     1     -48.502  36.479  28.769  1.00  0.00     0.084 H 
ATOM     11  H   UNL     1     -48.774  33.281  25.017  1.00  0.00     0.067 H 
ATOM     12  H   UNL     1     -44.639  33.204  25.803  1.00  0.00     0.166 HD
ATOM     13  H   UNL     1     -44.508  35.055  27.964  1.00  0.00     0.065 H 
ENDROOT
BRANCH   1  14
ATOM     14  C   UNL     1     -45.917  36.750  29.630  1.00  0.00     0.045 C 
ATOM     15  H   UNL     1     -45.227  36.181  30.262  1.00  0.00     0.054 H 
ATOM     16  H   UNL     1     -46.745  37.078  30.269  1.00  0.00     0.054 H 
BRANCH  14  17
ATOM     17  N   UNL     1     -45.194  37.889  29.123  1.00  0.00    -0.347 N 
ATOM     18  O   UNL     1     -47.028  39.194  28.643  1.00  0.00    -0.268 OA
ATOM     19  C   UNL     1     -45.818  39.003  28.615  1.00  0.00     0.270 C 
ATOM     20  H   UNL     1     -44.198  37.813  28.938  1.00  0.00     0.164 HD
BRANCH  19  21
ATOM     21  C   UNL     1     -44.842  39.971  27.992  1.00  0.00     0.136 A 
ATOM     22  C   UNL     1     -43.695  40.165  28.648  1.00  0.00     0.035 A 
ATOM     23  N   UNL     1     -45.187  40.592  26.813  1.00  0.00    -0.225 NA
ATOM     24  C   UNL     1     -42.721  41.105  28.081  1.00  0.00     0.258 A 
ATOM     25  H   UNL     1     -43.436  39.672  29.576  1.00  0.00     0.071 H 
ATOM     26  C   UNL     1     -44.323  41.424  26.317  1.00  0.00     0.140 A 
ATOM     27  O   UNL     1     -41.661  41.288  28.679  1.00  0.00    -0.269 OA
ATOM     28  N   UNL     1     -43.093  41.718  26.895  1.00  0.00    -0.268 N 
ATOM     29  C   UNL     1     -44.655  42.123  25.043  1.00  0.00    -0.019 A 
ATOM     30  C   UNL     1     -42.221  42.624  26.298  1.00  0.00     0.014 A 
ATOM     31  C   UNL     1     -43.784  42.987  24.508  1.00  0.00    -0.057 A 
ATOM     32  H   UNL     1     -45.612  41.904  24.586  1.00  0.00     0.066 H 
ATOM     33  C   UNL     1     -42.526  43.247  25.154  1.00  0.00    -0.045 A 
ATOM     34  H   UNL     1     -41.276  42.806  26.805  1.00  0.00     0.082 H 
ATOM     35  H   UNL     1     -44.008  43.507  23.582  1.00  0.00     0.062 H 
ATOM     36  H   UNL     1     -41.838  43.952  24.697  1.00  0.00     0.064 H 
ENDBRANCH  19  21
ENDBRANCH  14  17
ENDBRANCH   1  14
BRANCH   6  37
ATOM     37  C   UNL     1     -46.314  31.913  23.985  1.00  0.00     0.036 C 
ATOM     38  H   UNL     1     -46.763  32.236  23.038  1.00  0.00     0.049 H 
ATOM     39  H   UNL     1     -45.229  31.856  23.839  1.00  0.00     0.049 H 
BRANCH  37  40
ATOM     40  N   UNL     1     -46.839  30.615  24.388  1.00  0.00    -0.311 NA
ATOM     41  H   UNL     1     -47.807  30.725  24.684  1.00  0.00     0.123 HD
BRANCH  40  42
ATOM     42  C   UNL     1     -46.752  29.643  23.300  1.00  0.00    -0.002 C 
ATOM     43  H   UNL     1     -47.298  30.012  22.424  1.00  0.00     0.043 H 
ATOM     44  H   UNL     1     -45.704  29.515  23.004  1.00  0.00     0.043 H 
BRANCH  42  45
ATOM     45  C   UNL     1     -47.308  28.276  23.694  1.00  0.00    -0.029 C 
ATOM     46  C   UNL     1     -48.171  28.120  24.978  1.00  0.00    -0.049 C 
ATOM     47  C   UNL     1     -46.358  27.210  24.311  1.00  0.00    -0.049 C 
ATOM     48  H   UNL     1     -47.839  27.865  22.821  1.00  0.00     0.032 H 
ATOM     49  C   UNL     1     -47.574  26.703  25.115  1.00  0.00    -0.053 C 
ATOM     50  H   UNL     1     -49.253  28.163  24.828  1.00  0.00     0.027 H 
ATOM     51  H   UNL     1     -47.904  28.782  25.809  1.00  0.00     0.027 H 
ATOM     52  H   UNL     1     -45.555  27.608  24.942  1.00  0.00     0.027 H 
ATOM     53  H   UNL     1     -45.929  26.495  23.603  1.00  0.00     0.027 H 
ATOM     54  H   UNL     1     -48.152  25.929  24.599  1.00  0.00     0.027 H 
ATOM     55  H   UNL     1     -47.364  26.371  26.135  1.00  0.00     0.027 H 
ENDBRANCH  42  45
ENDBRANCH  40  42
ENDBRANCH  37  40
ENDBRANCH   6  37
TORSDOF 7
ENDMDL
MODEL 5
REMARK VINA RESULT:      -9.6      2.772     11.556
REMARK SMILES O=C(NCc1cnc2cc(CNCC3CCC3)[nH]c2c1)c1cc(=O)n2ccccc2n1
REMARK SMILES IDX 5 1 6 2 7 3 8 4 9 5 10 6 18 7 19 8 20 9 4 14 3 17 1 18 2 19
REMARK SMILES IDX 21 21 22 22 31 23 23 24 30 26 24 27 25 28 29 29 26 30 28 31
REMARK SMILES IDX 27 33 11 37 12 40 13 42 14 45 15 46 17 47 16 49
REMARK H PARENT 6 10 9 11 18 12 20 13 4 15 4 16 3 20 22 25 29 32 26 34 28 35
REMARK H PARENT 27 36 11 38 11 39 12 41 13 43 13 44 14 48 15 50 15 51 17 52
REMARK H PARENT 17 53 16 54 16 55
REMARK Flexibility Score: inf
ROOT
ATOM      1  C   UNL     1     -48.182  34.040  26.292  1.00  0.00    -0.008 A 
ATOM      2  C   UNL     1     -46.815  33.787  26.201  1.00  0.00     0.033 A 
ATOM      3  N   UNL     1     -45.823  34.590  26.648  1.00  0.00    -0.254 NA
ATOM      4  C   UNL     1     -46.248  35.734  27.236  1.00  0.00     0.088 A 
ATOM      5  C   UNL     1     -45.488  36.782  27.806  1.00  0.00    -0.014 A 
ATOM      6  C   UNL     1     -46.370  37.734  28.287  1.00  0.00     0.031 A 
ATOM      7  N   UNL     1     -47.642  37.281  28.016  1.00  0.00    -0.356 N 
ATOM      8  C   UNL     1     -47.591  36.065  27.377  1.00  0.00     0.065 A 
ATOM      9  C   UNL     1     -48.600  35.225  26.909  1.00  0.00    -0.030 A 
ATOM     10  H   UNL     1     -46.453  32.871  25.737  1.00  0.00     0.084 H 
ATOM     11  H   UNL     1     -44.410  36.836  27.854  1.00  0.00     0.067 H 
ATOM     12  H   UNL     1     -48.497  37.767  28.248  1.00  0.00     0.166 HD
ATOM     13  H   UNL     1     -49.651  35.471  27.020  1.00  0.00     0.065 H 
ENDROOT
BRANCH   1  14
ATOM     14  C   UNL     1     -49.186  33.051  25.770  1.00  0.00     0.045 C 
ATOM     15  H   UNL     1     -49.546  33.351  24.780  1.00  0.00     0.054 H 
ATOM     16  H   UNL     1     -50.057  33.014  26.434  1.00  0.00     0.054 H 
BRANCH  14  17
ATOM     17  N   UNL     1     -48.603  31.739  25.635  1.00  0.00    -0.347 N 
ATOM     18  O   UNL     1     -49.037  31.471  23.391  1.00  0.00    -0.268 OA
ATOM     19  C   UNL     1     -48.630  31.030  24.459  1.00  0.00     0.270 C 
ATOM     20  H   UNL     1     -48.338  31.217  26.464  1.00  0.00     0.164 HD
BRANCH  19  21
ATOM     21  C   UNL     1     -48.112  29.622  24.628  1.00  0.00     0.136 A 
ATOM     22  C   UNL     1     -47.087  29.267  23.850  1.00  0.00     0.035 A 
ATOM     23  N   UNL     1     -48.720  28.801  25.550  1.00  0.00    -0.225 NA
ATOM     24  C   UNL     1     -46.558  27.904  23.977  1.00  0.00     0.258 A 
ATOM     25  H   UNL     1     -46.619  29.922  23.127  1.00  0.00     0.071 H 
ATOM     26  C   UNL     1     -48.250  27.595  25.658  1.00  0.00     0.140 A 
ATOM     27  O   UNL     1     -45.613  27.569  23.265  1.00  0.00    -0.269 OA
ATOM     28  N   UNL     1     -47.188  27.096  24.911  1.00  0.00    -0.268 N 
ATOM     29  C   UNL     1     -48.879  26.669  26.641  1.00  0.00    -0.019 A 
ATOM     30  C   UNL     1     -46.743  25.790  25.087  1.00  0.00     0.014 A 
ATOM     31  C   UNL     1     -48.416  25.420  26.774  1.00  0.00    -0.057 A 
ATOM     32  H   UNL     1     -49.709  27.047  27.225  1.00  0.00     0.066 H 
ATOM     33  C   UNL     1     -47.313  24.963  25.973  1.00  0.00    -0.045 A 
ATOM     34  H   UNL     1     -45.908  25.465  24.470  1.00  0.00     0.082 H 
ATOM     35  H   UNL     1     -48.862  24.730  27.483  1.00  0.00     0.062 H 
ATOM     36  H   UNL     1     -46.956  23.945  26.102  1.00  0.00     0.064 H 
ENDBRANCH  19  21
ENDBRANCH  14  17
ENDBRANCH   1  14
BRANCH   6  37
ATOM     37  C   UNL     1     -46.119  39.027  28.981  1.00  0.00     0.036 C 
ATOM     38  H   UNL     1     -47.012  39.334  29.539  1.00  0.00     0.049 H 
ATOM     39  H   UNL     1     -45.304  38.892  29.702  1.00  0.00     0.049 H 
BRANCH  37  40
ATOM     40  N   UNL     1     -45.759  40.033  27.991  1.00  0.00    -0.311 NA
ATOM     41  H   UNL     1     -45.959  40.957  28.369  1.00  0.00     0.123 HD
BRANCH  40  42
ATOM     42  C   UNL     1     -44.349  39.935  27.618  1.00  0.00    -0.002 C 
ATOM     43  H   UNL     1     -43.964  38.941  27.871  1.00  0.00     0.043 H 
ATOM     44  H   UNL     1     -44.246  40.063  26.534  1.00  0.00     0.043 H 
BRANCH  42  45
ATOM     45  C   UNL     1     -43.489  40.993  28.308  1.00  0.00    -0.029 C 
ATOM     46  C   UNL     1     -42.251  41.593  27.584  1.00  0.00    -0.049 C 
ATOM     47  C   UNL     1     -42.511  40.567  29.439  1.00  0.00    -0.049 C 
ATOM     48  H   UNL     1     -44.159  41.796  28.655  1.00  0.00     0.032 H 
ATOM     49  C   UNL     1     -41.595  41.720  28.976  1.00  0.00    -0.053 C 
ATOM     50  H   UNL     1     -42.423  42.534  27.056  1.00  0.00     0.027 H 
ATOM     51  H   UNL     1     -41.717  40.908  26.917  1.00  0.00     0.027 H 
ATOM     52  H   UNL     1     -42.058  39.577  29.318  1.00  0.00     0.027 H 
ATOM     53  H   UNL     1     -42.900  40.654  30.458  1.00  0.00     0.027 H 
ATOM     54  H   UNL     1     -41.800  42.674  29.475  1.00  0.00     0.027 H 
ATOM     55  H   UNL     1     -40.522  41.520  29.016  1.00  0.00     0.027 H 
ENDBRANCH  42  45
ENDBRANCH  40  42
ENDBRANCH  37  40
ENDBRANCH   6  37
TORSDOF 7
ENDMDL
MODEL 6
REMARK VINA RESULT:      -9.4      2.741      4.182
REMARK SMILES O=C(NCc1cnc2cc(CNCC3CCC3)[nH]c2c1)c1cc(=O)n2ccccc2n1
REMARK SMILES IDX 5 1 6 2 7 3 8 4 9 5 10 6 18 7 19 8 20 9 4 14 3 17 1 18 2 19
REMARK SMILES IDX 21 21 22 22 31 23 23 24 30 26 24 27 25 28 29 29 26 30 28 31
REMARK SMILES IDX 27 33 11 37 12 40 13 42 14 45 15 46 17 47 16 49
REMARK H PARENT 6 10 9 11 18 12 20 13 4 15 4 16 3 20 22 25 29 32 26 34 28 35
REMARK H PARENT 27 36 11 38 11 39 12 41 13 43 13 44 14 48 15 50 15 51 17 52
REMARK H PARENT 17 53 16 54 16 55
REMARK Flexibility Score: inf
ROOT
ATOM      1  C   UNL     1     -47.072  36.689  27.908  1.00  0.00    -0.008 A 
ATOM      2  C   UNL     1     -46.838  35.730  28.892  1.00  0.00     0.033 A 
ATOM      3  N   UNL     1     -46.598  34.415  28.685  1.00  0.00    -0.254 NA
ATOM      4  C   UNL     1     -46.589  34.044  27.382  1.00  0.00     0.088 A 
ATOM      5  C   UNL     1     -46.372  32.766  26.819  1.00  0.00    -0.014 A 
ATOM      6  C   UNL     1     -46.456  32.887  25.443  1.00  0.00     0.031 A 
ATOM      7  N   UNL     1     -46.721  34.210  25.169  1.00  0.00    -0.356 N 
ATOM      8  C   UNL     1     -46.806  34.933  26.335  1.00  0.00     0.065 A 
ATOM      9  C   UNL     1     -47.053  36.285  26.568  1.00  0.00    -0.030 A 
ATOM     10  H   UNL     1     -46.836  36.009  29.944  1.00  0.00     0.084 H 
ATOM     11  H   UNL     1     -46.180  31.851  27.363  1.00  0.00     0.067 H 
ATOM     12  H   UNL     1     -46.840  34.603  24.246  1.00  0.00     0.166 HD
ATOM     13  H   UNL     1     -47.217  36.988  25.758  1.00  0.00     0.065 H 
ENDROOT
BRANCH   1  14
ATOM     14  C   UNL     1     -47.309  38.127  28.273  1.00  0.00     0.045 C 
ATOM     15  H   UNL     1     -47.323  38.253  29.361  1.00  0.00     0.054 H 
ATOM     16  H   UNL     1     -48.286  38.453  27.897  1.00  0.00     0.054 H 
BRANCH  14  17
ATOM     17  N   UNL     1     -46.264  38.974  27.757  1.00  0.00    -0.347 N 
ATOM     18  O   UNL     1     -44.738  38.592  29.436  1.00  0.00    -0.268 OA
ATOM     19  C   UNL     1     -45.077  39.182  28.417  1.00  0.00     0.270 C 
ATOM     20  H   UNL     1     -46.461  39.606  26.987  1.00  0.00     0.164 HD
BRANCH  19  21
ATOM     21  C   UNL     1     -44.232  40.243  27.755  1.00  0.00     0.136 A 
ATOM     22  C   UNL     1     -43.126  40.613  28.403  1.00  0.00     0.035 A 
ATOM     23  N   UNL     1     -44.648  40.762  26.550  1.00  0.00    -0.225 NA
ATOM     24  C   UNL     1     -42.279  41.648  27.798  1.00  0.00     0.258 A 
ATOM     25  H   UNL     1     -42.811  40.199  29.352  1.00  0.00     0.071 H 
ATOM     26  C   UNL     1     -43.897  41.679  26.019  1.00  0.00     0.140 A 
ATOM     27  O   UNL     1     -41.257  41.995  28.389  1.00  0.00    -0.269 OA
ATOM     28  N   UNL     1     -42.720  42.156  26.585  1.00  0.00    -0.268 N 
ATOM     29  C   UNL     1     -44.309  42.273  24.716  1.00  0.00    -0.019 A 
ATOM     30  C   UNL     1     -41.971  43.142  25.952  1.00  0.00     0.014 A 
ATOM     31  C   UNL     1     -43.555  43.220  24.145  1.00  0.00    -0.057 A 
ATOM     32  H   UNL     1     -45.225  41.910  24.268  1.00  0.00     0.066 H 
ATOM     33  C   UNL     1     -42.347  43.671  24.781  1.00  0.00    -0.045 A 
ATOM     34  H   UNL     1     -41.061  43.469  26.451  1.00  0.00     0.082 H 
ATOM     35  H   UNL     1     -43.839  43.666  23.197  1.00  0.00     0.062 H 
ATOM     36  H   UNL     1     -41.753  44.440  24.295  1.00  0.00     0.064 H 
ENDBRANCH  19  21
ENDBRANCH  14  17
ENDBRANCH   1  14
BRANCH   6  37
ATOM     37  C   UNL     1     -46.304  31.869  24.367  1.00  0.00     0.036 C 
ATOM     38  H   UNL     1     -45.548  32.196  23.643  1.00  0.00     0.049 H 
ATOM     39  H   UNL     1     -45.957  30.929  24.812  1.00  0.00     0.049 H 
BRANCH  37  40
ATOM     40  N   UNL     1     -47.592  31.674  23.714  1.00  0.00    -0.311 NA
ATOM     41  H   UNL     1     -47.757  32.444  23.068  1.00  0.00     0.123 HD
BRANCH  40  42
ATOM     42  C   UNL     1     -47.643  30.399  23.004  1.00  0.00    -0.002 C 
ATOM     43  H   UNL     1     -46.719  30.250  22.434  1.00  0.00     0.043 H 
ATOM     44  H   UNL     1     -47.719  29.578  23.727  1.00  0.00     0.043 H 
BRANCH  42  45
ATOM     45  C   UNL     1     -48.835  30.309  22.052  1.00  0.00    -0.029 C 
ATOM     46  C   UNL     1     -48.710  30.819  20.588  1.00  0.00    -0.049 C 
ATOM     47  C   UNL     1     -50.016  31.309  22.206  1.00  0.00    -0.049 C 
ATOM     48  H   UNL     1     -49.199  29.270  22.068  1.00  0.00     0.032 H 
ATOM     49  C   UNL     1     -50.203  31.205  20.677  1.00  0.00    -0.053 C 
ATOM     50  H   UNL     1     -48.463  30.059  19.843  1.00  0.00     0.027 H 
ATOM     51  H   UNL     1     -48.050  31.681  20.444  1.00  0.00     0.027 H 
ATOM     52  H   UNL     1     -49.738  32.314  22.542  1.00  0.00     0.027 H 
ATOM     53  H   UNL     1     -50.857  30.956  22.809  1.00  0.00     0.027 H 
ATOM     54  H   UNL     1     -50.884  30.403  20.369  1.00  0.00     0.027 H 
ATOM     55  H   UNL     1     -50.486  32.129  20.169  1.00  0.00     0.027 H 
ENDBRANCH  42  45
ENDBRANCH  40  42
ENDBRANCH  37  40
ENDBRANCH   6  37
TORSDOF 7
ENDMDL
MODEL 7
REMARK VINA RESULT:      -9.3      2.458      3.481
REMARK SMILES O=C(NCc1cnc2cc(CNCC3CCC3)[nH]c2c1)c1cc(=O)n2ccccc2n1
REMARK SMILES IDX 5 1 6 2 7 3 8 4 9 5 10 6 18 7 19 8 20 9 4 14 3 17 1 18 2 19
REMARK SMILES IDX 21 21 22 22 31 23 23 24 30 26 24 27 25 28 29 29 26 30 28 31
REMARK SMILES IDX 27 33 11 37 12 40 13 42 14 45 15 46 17 47 16 49
REMARK H PARENT 6 10 9 11 18 12 20 13 4 15 4 16 3 20 22 25 29 32 26 34 28 35
REMARK H PARENT 27 36 11 38 11 39 12 41 13 43 13 44 14 48 15 50 15 51 17 52
REMARK H PARENT 17 53 16 54 16 55
REMARK Flexibility Score: inf
ROOT
ATOM      1  C   UNL     1     -46.698  35.622  28.166  1.00  0.00    -0.008 A 
ATOM      2  C   UNL     1     -48.047  35.476  27.847  1.00  0.00     0.033 A 
ATOM      3  N   UNL     1     -48.561  34.653  26.905  1.00  0.00    -0.254 NA
ATOM      4  C   UNL     1     -47.639  33.918  26.238  1.00  0.00     0.088 A 
ATOM      5  C   UNL     1     -47.829  32.971  25.206  1.00  0.00    -0.014 A 
ATOM      6  C   UNL     1     -46.586  32.479  24.846  1.00  0.00     0.031 A 
ATOM      7  N   UNL     1     -45.655  33.113  25.638  1.00  0.00    -0.356 N 
ATOM      8  C   UNL     1     -46.274  33.993  26.493  1.00  0.00     0.065 A 
ATOM      9  C   UNL     1     -45.763  34.849  27.468  1.00  0.00    -0.030 A 
ATOM     10  H   UNL     1     -48.803  36.054  28.375  1.00  0.00     0.084 H 
ATOM     11  H   UNL     1     -48.774  32.682  24.768  1.00  0.00     0.067 H 
ATOM     12  H   UNL     1     -44.657  32.961  25.603  1.00  0.00     0.166 HD
ATOM     13  H   UNL     1     -44.700  34.910  27.680  1.00  0.00     0.065 H 
ENDROOT
BRANCH   1  14
ATOM     14  C   UNL     1     -46.259  36.563  29.252  1.00  0.00     0.045 C 
ATOM     15  H   UNL     1     -45.449  36.122  29.842  1.00  0.00     0.054 H 
ATOM     16  H   UNL     1     -47.092  36.756  29.939  1.00  0.00     0.054 H 
BRANCH  14  17
ATOM     17  N   UNL     1     -45.766  37.800  28.702  1.00  0.00    -0.347 N 
ATOM     18  O   UNL     1     -47.802  38.854  28.513  1.00  0.00    -0.268 OA
ATOM     19  C   UNL     1     -46.592  38.829  28.322  1.00  0.00     0.270 C 
ATOM     20  H   UNL     1     -44.802  37.864  28.387  1.00  0.00     0.164 HD
BRANCH  19  21
ATOM     21  C   UNL     1     -45.843  39.934  27.618  1.00  0.00     0.136 A 
ATOM     22  C   UNL     1     -46.560  40.719  26.809  1.00  0.00     0.035 A 
ATOM     23  N   UNL     1     -44.490  40.061  27.838  1.00  0.00    -0.225 NA
ATOM     24  C   UNL     1     -45.869  41.801  26.098  1.00  0.00     0.258 A 
ATOM     25  H   UNL     1     -47.623  40.607  26.642  1.00  0.00     0.071 H 
ATOM     26  C   UNL     1     -43.883  41.018  27.206  1.00  0.00     0.140 A 
ATOM     27  O   UNL     1     -46.522  42.529  25.352  1.00  0.00    -0.269 OA
ATOM     28  N   UNL     1     -44.507  41.906  26.336  1.00  0.00    -0.268 N 
ATOM     29  C   UNL     1     -42.417  41.192  27.411  1.00  0.00    -0.019 A 
ATOM     30  C   UNL     1     -43.783  42.907  25.696  1.00  0.00     0.014 A 
ATOM     31  C   UNL     1     -41.764  42.170  26.772  1.00  0.00    -0.057 A 
ATOM     32  H   UNL     1     -41.921  40.504  28.084  1.00  0.00     0.066 H 
ATOM     33  C   UNL     1     -42.467  43.058  25.886  1.00  0.00    -0.045 A 
ATOM     34  H   UNL     1     -44.335  43.567  25.030  1.00  0.00     0.082 H 
ATOM     35  H   UNL     1     -40.696  42.311  26.907  1.00  0.00     0.062 H 
ATOM     36  H   UNL     1     -41.912  43.843  25.381  1.00  0.00     0.064 H 
ENDBRANCH  19  21
ENDBRANCH  14  17
ENDBRANCH   1  14
BRANCH   6  37
ATOM     37  C   UNL     1     -46.201  31.465  23.826  1.00  0.00     0.036 C 
ATOM     38  H   UNL     1     -46.469  31.819  22.823  1.00  0.00     0.049 H 
ATOM     39  H   UNL     1     -45.114  31.327  23.852  1.00  0.00     0.049 H 
BRANCH  37  40
ATOM     40  N   UNL     1     -46.878  30.210  24.127  1.00  0.00    -0.311 NA
ATOM     41  H   UNL     1     -47.615  30.385  24.807  1.00  0.00     0.123 HD
BRANCH  40  42
ATOM     42  C   UNL     1     -47.436  29.602  22.921  1.00  0.00    -0.002 C 
ATOM     43  H   UNL     1     -46.634  29.162  22.318  1.00  0.00     0.043 H 
ATOM     44  H   UNL     1     -48.120  28.792  23.201  1.00  0.00     0.043 H 
BRANCH  42  45
ATOM     45  C   UNL     1     -48.209  30.606  22.067  1.00  0.00    -0.029 C 
ATOM     46  C   UNL     1     -49.650  31.031  22.467  1.00  0.00    -0.049 C 
ATOM     47  C   UNL     1     -48.815  30.151  20.709  1.00  0.00    -0.049 C 
ATOM     48  H   UNL     1     -47.570  31.493  21.931  1.00  0.00     0.032 H 
ATOM     49  C   UNL     1     -49.943  31.174  20.957  1.00  0.00    -0.053 C 
ATOM     50  H   UNL     1     -49.726  31.952  23.051  1.00  0.00     0.027 H 
ATOM     51  H   UNL     1     -50.254  30.256  22.951  1.00  0.00     0.027 H 
ATOM     52  H   UNL     1     -49.168  29.114  20.678  1.00  0.00     0.027 H 
ATOM     53  H   UNL     1     -48.193  30.338  19.829  1.00  0.00     0.027 H 
ATOM     54  H   UNL     1     -49.729  32.173  20.559  1.00  0.00     0.027 H 
ATOM     55  H   UNL     1     -50.942  30.869  20.636  1.00  0.00     0.027 H 
ENDBRANCH  42  45
ENDBRANCH  40  42
ENDBRANCH  37  40
ENDBRANCH   6  37
TORSDOF 7
ENDMDL
