MODEL 1
REMARK VINA RESULT:      -9.3      0.000      0.000
REMARK SMILES CNc1ccc2ccc(OCc3cncc(-n4ccc5c(N)nc(N(C)C)nc54)c3)cc2n1
REMARK SMILES IDX 11 1 10 4 9 5 3 6 4 7 33 8 5 9 32 11 6 12 31 14 7 15 8 17
REMARK SMILES IDX 2 20 1 22 12 26 13 27 30 28 14 29 16 31 15 33 17 35 18 36
REMARK SMILES IDX 29 37 19 38 20 40 28 41 21 43 24 44 23 45 22 46 25 49 26 50
REMARK SMILES IDX 27 54
REMARK H PARENT 11 2 11 3 4 10 5 13 31 16 7 18 8 19 2 21 1 23 1 24 1 25 13 30
REMARK H PARENT 30 32 15 34 18 39 19 42 22 47 22 48 26 51 26 52 26 53 27 55
REMARK H PARENT 27 56 27 57
REMARK Flexibility Score: inf
ROOT
ATOM      1  C   UNL     1     -46.842  34.849  26.230  1.00  0.00     0.115 C 
ATOM      2  H   UNL     1     -45.790  34.567  26.088  1.00  0.00     0.076 H 
ATOM      3  H   UNL     1     -47.249  35.033  25.228  1.00  0.00     0.076 H 
ENDROOT
BRANCH   1   4
ATOM      4  O   UNL     1     -47.603  33.767  26.771  1.00  0.00    -0.489 OA
BRANCH   4   5
ATOM      5  C   UNL     1     -47.736  32.647  25.996  1.00  0.00     0.122 A 
ATOM      6  C   UNL     1     -46.499  30.722  21.820  1.00  0.00     0.126 A 
ATOM      7  C   UNL     1     -47.264  29.587  22.066  1.00  0.00    -0.019 A 
ATOM      8  N   UNL     1     -46.419  31.727  22.715  1.00  0.00    -0.231 NA
ATOM      9  C   UNL     1     -47.983  29.492  23.254  1.00  0.00    -0.049 A 
ATOM     10  H   UNL     1     -47.293  28.777  21.347  1.00  0.00     0.066 H 
ATOM     11  C   UNL     1     -47.109  31.640  23.867  1.00  0.00     0.076 A 
ATOM     12  C   UNL     1     -47.916  30.532  24.183  1.00  0.00     0.001 A 
ATOM     13  H   UNL     1     -48.582  28.607  23.445  1.00  0.00     0.063 H 
ATOM     14  C   UNL     1     -47.038  32.679  24.784  1.00  0.00     0.007 A 
ATOM     15  C   UNL     1     -48.627  30.494  25.393  1.00  0.00    -0.049 A 
ATOM     16  H   UNL     1     -46.421  33.543  24.546  1.00  0.00     0.069 H 
ATOM     17  C   UNL     1     -48.542  31.555  26.295  1.00  0.00    -0.019 A 
ATOM     18  H   UNL     1     -49.264  29.645  25.633  1.00  0.00     0.063 H 
ATOM     19  H   UNL     1     -49.135  31.509  27.203  1.00  0.00     0.066 H 
BRANCH   6  20
ATOM     20  N   UNL     1     -45.767  30.773  20.620  1.00  0.00    -0.373 N 
ATOM     21  H   UNL     1     -45.871  29.887  20.134  1.00  0.00     0.161 HD
BRANCH  20  22
ATOM     22  C   UNL     1     -46.101  31.901  19.764  1.00  0.00     0.005 C 
ATOM     23  H   UNL     1     -46.995  32.393  20.161  1.00  0.00     0.045 H 
ATOM     24  H   UNL     1     -45.297  32.643  19.742  1.00  0.00     0.045 H 
ATOM     25  H   UNL     1     -46.336  31.575  18.745  1.00  0.00     0.045 H 
ENDBRANCH  20  22
ENDBRANCH   6  20
ENDBRANCH   4   5
ENDBRANCH   1   4
BRANCH   1  26
ATOM     26  C   UNL     1     -46.964  36.136  27.007  1.00  0.00     0.010 A 
ATOM     27  C   UNL     1     -48.224  36.552  27.427  1.00  0.00     0.034 A 
ATOM     28  C   UNL     1     -45.865  36.920  27.387  1.00  0.00    -0.028 A 
ATOM     29  N   UNL     1     -48.449  37.660  28.164  1.00  0.00    -0.262 NA
ATOM     30  H   UNL     1     -49.118  35.986  27.182  1.00  0.00     0.084 H 
ATOM     31  C   UNL     1     -46.056  38.075  28.156  1.00  0.00     0.066 A 
ATOM     32  H   UNL     1     -44.871  36.590  27.104  1.00  0.00     0.065 H 
ATOM     33  C   UNL     1     -47.364  38.392  28.513  1.00  0.00     0.051 A 
ATOM     34  H   UNL     1     -47.620  39.277  29.084  1.00  0.00     0.086 H 
BRANCH  31  35
ATOM     35  N   UNL     1     -44.968  38.893  28.587  1.00  0.00    -0.300 N 
ATOM     36  C   UNL     1     -44.223  38.682  29.742  1.00  0.00     0.012 A 
ATOM     37  C   UNL     1     -44.441  40.022  27.958  1.00  0.00     0.152 A 
ATOM     38  C   UNL     1     -43.220  39.621  29.816  1.00  0.00    -0.031 A 
ATOM     39  H   UNL     1     -44.424  37.853  30.405  1.00  0.00     0.082 H 
ATOM     40  C   UNL     1     -43.356  40.472  28.696  1.00  0.00     0.062 A 
ATOM     41  N   UNL     1     -44.909  40.616  26.847  1.00  0.00    -0.194 NA
ATOM     42  H   UNL     1     -42.469  39.683  30.592  1.00  0.00     0.065 H 
ATOM     43  C   UNL     1     -42.690  41.595  28.206  1.00  0.00     0.138 A 
ATOM     44  C   UNL     1     -44.224  41.698  26.444  1.00  0.00     0.228 A 
ATOM     45  N   UNL     1     -43.140  42.182  27.085  1.00  0.00    -0.195 NA
BRANCH  43  46
ATOM     46  N   UNL     1     -41.589  42.172  28.829  1.00  0.00    -0.383 N 
ATOM     47  H   UNL     1     -41.713  42.350  29.816  1.00  0.00     0.158 HD
ATOM     48  H   UNL     1     -41.251  42.952  28.276  1.00  0.00     0.158 HD
ENDBRANCH  43  46
BRANCH  44  49
ATOM     49  N   UNL     1     -44.677  42.394  25.319  1.00  0.00    -0.347 N 
BRANCH  49  50
ATOM     50  C   UNL     1     -43.638  43.069  24.557  1.00  0.00     0.009 C 
ATOM     51  H   UNL     1     -42.958  42.347  24.092  1.00  0.00     0.046 H 
ATOM     52  H   UNL     1     -44.082  43.647  23.738  1.00  0.00     0.046 H 
ATOM     53  H   UNL     1     -43.064  43.762  25.183  1.00  0.00     0.046 H 
ENDBRANCH  49  50
BRANCH  49  54
ATOM     54  C   UNL     1     -45.916  43.126  25.527  1.00  0.00     0.009 C 
ATOM     55  H   UNL     1     -46.449  42.777  26.420  1.00  0.00     0.046 H 
ATOM     56  H   UNL     1     -45.735  44.203  25.613  1.00  0.00     0.046 H 
ATOM     57  H   UNL     1     -46.597  42.968  24.684  1.00  0.00     0.046 H 
ENDBRANCH  49  54
ENDBRANCH  44  49
ENDBRANCH  31  35
ENDBRANCH   1  26
TORSDOF 10
ENDMDL
MODEL 2
REMARK VINA RESULT:      -9.1      2.878     11.283
REMARK SMILES CNc1ccc2ccc(OCc3cncc(-n4ccc5c(N)nc(N(C)C)nc54)c3)cc2n1
REMARK SMILES IDX 11 1 10 4 9 5 3 6 4 7 33 8 5 9 32 11 6 12 31 14 7 15 8 17
REMARK SMILES IDX 2 20 1 22 12 26 13 27 30 28 14 29 16 31 15 33 17 35 18 36
REMARK SMILES IDX 29 37 19 38 20 40 28 41 21 43 24 44 23 45 22 46 25 49 26 50
REMARK SMILES IDX 27 54
REMARK H PARENT 11 2 11 3 4 10 5 13 31 16 7 18 8 19 2 21 1 23 1 24 1 25 13 30
REMARK H PARENT 30 32 15 34 18 39 19 42 22 47 22 48 26 51 26 52 26 53 27 55
REMARK H PARENT 27 56 27 57
REMARK Flexibility Score: inf
ROOT
ATOM      1  C   UNL     1     -48.348  35.048  27.077  1.00  0.00     0.115 C 
ATOM      2  H   UNL     1     -49.430  35.124  27.252  1.00  0.00     0.076 H 
ATOM      3  H   UNL     1     -48.058  35.960  26.542  1.00  0.00     0.076 H 
ENDROOT
BRANCH   1   4
ATOM      4  O   UNL     1     -47.620  35.066  28.307  1.00  0.00    -0.489 OA
BRANCH   4   5
ATOM      5  C   UNL     1     -46.796  36.135  28.531  1.00  0.00     0.122 A 
ATOM      6  C   UNL     1     -45.130  40.148  26.584  1.00  0.00     0.126 A 
ATOM      7  C   UNL     1     -44.307  40.390  27.678  1.00  0.00    -0.019 A 
ATOM      8  N   UNL     1     -45.938  39.070  26.533  1.00  0.00    -0.231 NA
ATOM      9  C   UNL     1     -44.297  39.488  28.739  1.00  0.00    -0.049 A 
ATOM     10  H   UNL     1     -43.685  41.277  27.713  1.00  0.00     0.066 H 
ATOM     11  C   UNL     1     -45.937  38.197  27.556  1.00  0.00     0.076 A 
ATOM     12  C   UNL     1     -45.122  38.363  28.691  1.00  0.00     0.001 A 
ATOM     13  H   UNL     1     -43.652  39.675  29.592  1.00  0.00     0.063 H 
ATOM     14  C   UNL     1     -46.758  37.080  27.501  1.00  0.00     0.007 A 
ATOM     15  C   UNL     1     -45.146  37.416  29.728  1.00  0.00    -0.049 A 
ATOM     16  H   UNL     1     -47.388  36.940  26.625  1.00  0.00     0.069 H 
ATOM     17  C   UNL     1     -45.978  36.299  29.643  1.00  0.00    -0.019 A 
ATOM     18  H   UNL     1     -44.506  37.534  30.599  1.00  0.00     0.063 H 
ATOM     19  H   UNL     1     -45.943  35.567  30.444  1.00  0.00     0.066 H 
BRANCH   6  20
ATOM     20  N   UNL     1     -45.132  41.093  25.542  1.00  0.00    -0.373 N 
ATOM     21  H   UNL     1     -45.774  40.783  24.819  1.00  0.00     0.161 HD
BRANCH  20  22
ATOM     22  C   UNL     1     -45.417  42.454  25.971  1.00  0.00     0.005 C 
ATOM     23  H   UNL     1     -44.542  42.851  26.495  1.00  0.00     0.045 H 
ATOM     24  H   UNL     1     -45.620  43.111  25.119  1.00  0.00     0.045 H 
ATOM     25  H   UNL     1     -46.258  42.485  26.673  1.00  0.00     0.045 H 
ENDBRANCH  20  22
ENDBRANCH   6  20
ENDBRANCH   4   5
ENDBRANCH   1   4
BRANCH   1  26
ATOM     26  C   UNL     1     -48.019  33.879  26.183  1.00  0.00     0.010 A 
ATOM     27  C   UNL     1     -46.687  33.619  25.877  1.00  0.00     0.034 A 
ATOM     28  C   UNL     1     -48.981  32.990  25.681  1.00  0.00    -0.028 A 
ATOM     29  N   UNL     1     -46.271  32.579  25.126  1.00  0.00    -0.262 NA
ATOM     30  H   UNL     1     -45.887  34.257  26.244  1.00  0.00     0.084 H 
ATOM     31  C   UNL     1     -48.591  31.895  24.902  1.00  0.00     0.066 A 
ATOM     32  H   UNL     1     -50.022  33.152  25.944  1.00  0.00     0.065 H 
ATOM     33  C   UNL     1     -47.228  31.742  24.659  1.00  0.00     0.051 A 
ATOM     34  H   UNL     1     -46.826  30.943  24.047  1.00  0.00     0.086 H 
BRANCH  31  35
ATOM     35  N   UNL     1     -49.530  30.950  24.388  1.00  0.00    -0.300 N 
ATOM     36  C   UNL     1     -50.723  31.279  23.754  1.00  0.00     0.012 A 
ATOM     37  C   UNL     1     -49.444  29.557  24.406  1.00  0.00     0.152 A 
ATOM     38  C   UNL     1     -51.350  30.128  23.336  1.00  0.00    -0.031 A 
ATOM     39  H   UNL     1     -51.020  32.306  23.598  1.00  0.00     0.082 H 
ATOM     40  C   UNL     1     -50.550  29.038  23.749  1.00  0.00     0.062 A 
ATOM     41  N   UNL     1     -48.483  28.818  24.987  1.00  0.00    -0.194 NA
ATOM     42  H   UNL     1     -52.281  30.079  22.788  1.00  0.00     0.065 H 
ATOM     43  C   UNL     1     -50.626  27.649  23.657  1.00  0.00     0.138 A 
ATOM     44  C   UNL     1     -48.632  27.489  24.867  1.00  0.00     0.228 A 
ATOM     45  N   UNL     1     -49.660  26.904  24.218  1.00  0.00    -0.195 NA
BRANCH  43  46
ATOM     46  N   UNL     1     -51.671  26.974  23.035  1.00  0.00    -0.383 N 
ATOM     47  H   UNL     1     -51.459  26.019  22.780  1.00  0.00     0.158 HD
ATOM     48  H   UNL     1     -52.065  27.553  22.301  1.00  0.00     0.158 HD
ENDBRANCH  43  46
BRANCH  44  49
ATOM     49  N   UNL     1     -47.694  26.654  25.482  1.00  0.00    -0.347 N 
BRANCH  49  50
ATOM     50  C   UNL     1     -47.738  26.648  26.935  1.00  0.00     0.009 C 
ATOM     51  H   UNL     1     -46.769  26.361  27.358  1.00  0.00     0.046 H 
ATOM     52  H   UNL     1     -47.954  27.654  27.314  1.00  0.00     0.046 H 
ATOM     53  H   UNL     1     -48.516  25.974  27.312  1.00  0.00     0.046 H 
ENDBRANCH  49  50
BRANCH  49  54
ATOM     54  C   UNL     1     -46.377  26.680  24.867  1.00  0.00     0.009 C 
ATOM     55  H   UNL     1     -46.281  27.500  24.145  1.00  0.00     0.046 H 
ATOM     56  H   UNL     1     -45.585  26.767  25.619  1.00  0.00     0.046 H 
ATOM     57  H   UNL     1     -46.201  25.756  24.304  1.00  0.00     0.046 H 
ENDBRANCH  49  54
ENDBRANCH  44  49
ENDBRANCH  31  35
ENDBRANCH   1  26
TORSDOF 10
ENDMDL
MODEL 3
REMARK VINA RESULT:      -9.0      1.818      2.540
REMARK SMILES CNc1ccc2ccc(OCc3cncc(-n4ccc5c(N)nc(N(C)C)nc54)c3)cc2n1
REMARK SMILES IDX 11 1 10 4 9 5 3 6 4 7 33 8 5 9 32 11 6 12 31 14 7 15 8 17
REMARK SMILES IDX 2 20 1 22 12 26 13 27 30 28 14 29 16 31 15 33 17 35 18 36
REMARK SMILES IDX 29 37 19 38 20 40 28 41 21 43 24 44 23 45 22 46 25 49 26 50
REMARK SMILES IDX 27 54
REMARK H PARENT 11 2 11 3 4 10 5 13 31 16 7 18 8 19 2 21 1 23 1 24 1 25 13 30
REMARK H PARENT 30 32 15 34 18 39 19 42 22 47 22 48 26 51 26 52 26 53 27 55
REMARK H PARENT 27 56 27 57
REMARK Flexibility Score: inf
ROOT
ATOM      1  C   UNL     1     -47.005  35.562  26.588  1.00  0.00     0.115 C 
ATOM      2  H   UNL     1     -46.214  35.478  25.831  1.00  0.00     0.076 H 
ATOM      3  H   UNL     1     -47.762  36.237  26.168  1.00  0.00     0.076 H 
ENDROOT
BRANCH   1   4
ATOM      4  O   UNL     1     -47.664  34.311  26.793  1.00  0.00    -0.489 OA
BRANCH   4   5
ATOM      5  C   UNL     1     -47.425  33.320  25.882  1.00  0.00     0.122 A 
ATOM      6  C   UNL     1     -48.909  29.041  24.411  1.00  0.00     0.126 A 
ATOM      7  C   UNL     1     -47.885  28.958  23.475  1.00  0.00    -0.019 A 
ATOM      8  N   UNL     1     -49.052  30.120  25.208  1.00  0.00    -0.231 NA
ATOM      9  C   UNL     1     -46.969  30.001  23.369  1.00  0.00    -0.049 A 
ATOM     10  H   UNL     1     -47.803  28.095  22.824  1.00  0.00     0.066 H 
ATOM     11  C   UNL     1     -48.173  31.133  25.109  1.00  0.00     0.076 A 
ATOM     12  C   UNL     1     -47.101  31.118  24.197  1.00  0.00     0.001 A 
ATOM     13  H   UNL     1     -46.167  29.935  22.640  1.00  0.00     0.063 H 
ATOM     14  C   UNL     1     -48.310  32.239  25.936  1.00  0.00     0.007 A 
ATOM     15  C   UNL     1     -46.201  32.195  24.140  1.00  0.00    -0.049 A 
ATOM     16  H   UNL     1     -49.132  32.257  26.647  1.00  0.00     0.069 H 
ATOM     17  C   UNL     1     -46.360  33.291  24.987  1.00  0.00    -0.019 A 
ATOM     18  H   UNL     1     -45.364  32.178  23.447  1.00  0.00     0.063 H 
ATOM     19  H   UNL     1     -45.625  34.088  24.944  1.00  0.00     0.066 H 
BRANCH   6  20
ATOM     20  N   UNL     1     -49.830  27.979  24.474  1.00  0.00    -0.373 N 
ATOM     21  H   UNL     1     -50.129  27.748  23.530  1.00  0.00     0.161 HD
BRANCH  20  22
ATOM     22  C   UNL     1     -49.344  26.810  25.188  1.00  0.00     0.005 C 
ATOM     23  H   UNL     1     -49.148  27.086  26.229  1.00  0.00     0.045 H 
ATOM     24  H   UNL     1     -50.085  26.003  25.193  1.00  0.00     0.045 H 
ATOM     25  H   UNL     1     -48.401  26.445  24.766  1.00  0.00     0.045 H 
ENDBRANCH  20  22
ENDBRANCH   6  20
ENDBRANCH   4   5
ENDBRANCH   1   4
BRANCH   1  26
ATOM     26  C   UNL     1     -46.487  36.201  27.852  1.00  0.00     0.010 A 
ATOM     27  C   UNL     1     -46.827  35.639  29.079  1.00  0.00     0.034 A 
ATOM     28  C   UNL     1     -45.625  37.307  27.866  1.00  0.00    -0.028 A 
ATOM     29  N   UNL     1     -46.388  36.096  30.269  1.00  0.00    -0.262 NA
ATOM     30  H   UNL     1     -47.478  34.771  29.142  1.00  0.00     0.084 H 
ATOM     31  C   UNL     1     -45.143  37.810  29.080  1.00  0.00     0.066 A 
ATOM     32  H   UNL     1     -45.315  37.734  26.917  1.00  0.00     0.065 H 
ATOM     33  C   UNL     1     -45.556  37.165  30.244  1.00  0.00     0.051 A 
ATOM     34  H   UNL     1     -45.260  37.491  31.234  1.00  0.00     0.086 H 
BRANCH  31  35
ATOM     35  N   UNL     1     -44.245  38.919  29.145  1.00  0.00    -0.300 N 
ATOM     36  C   UNL     1     -43.168  39.020  30.018  1.00  0.00     0.012 A 
ATOM     37  C   UNL     1     -44.257  40.079  28.370  1.00  0.00     0.152 A 
ATOM     38  C   UNL     1     -42.486  40.188  29.768  1.00  0.00    -0.031 A 
ATOM     39  H   UNL     1     -42.930  38.235  30.721  1.00  0.00     0.082 H 
ATOM     40  C   UNL     1     -43.172  40.863  28.733  1.00  0.00     0.062 A 
ATOM     41  N   UNL     1     -45.174  40.422  27.449  1.00  0.00    -0.194 NA
ATOM     42  H   UNL     1     -41.588  40.516  30.274  1.00  0.00     0.065 H 
ATOM     43  C   UNL     1     -43.014  42.067  28.047  1.00  0.00     0.138 A 
ATOM     44  C   UNL     1     -44.963  41.600  26.841  1.00  0.00     0.228 A 
ATOM     45  N   UNL     1     -43.916  42.407  27.111  1.00  0.00    -0.195 NA
BRANCH  43  46
ATOM     46  N   UNL     1     -41.982  42.966  28.294  1.00  0.00    -0.383 N 
ATOM     47  H   UNL     1     -42.113  43.877  27.878  1.00  0.00     0.158 HD
ATOM     48  H   UNL     1     -41.090  42.520  28.115  1.00  0.00     0.158 HD
ENDBRANCH  43  46
BRANCH  44  49
ATOM     49  N   UNL     1     -45.898  42.044  25.901  1.00  0.00    -0.347 N 
BRANCH  49  50
ATOM     50  C   UNL     1     -45.541  43.276  25.216  1.00  0.00     0.009 C 
ATOM     51  H   UNL     1     -46.391  43.966  25.178  1.00  0.00     0.046 H 
ATOM     52  H   UNL     1     -44.744  43.797  25.760  1.00  0.00     0.046 H 
ATOM     53  H   UNL     1     -45.181  43.083  24.199  1.00  0.00     0.046 H 
ENDBRANCH  49  50
BRANCH  49  54
ATOM     54  C   UNL     1     -47.282  41.906  26.323  1.00  0.00     0.009 C 
ATOM     55  H   UNL     1     -47.924  41.559  25.505  1.00  0.00     0.046 H 
ATOM     56  H   UNL     1     -47.375  41.218  27.172  1.00  0.00     0.046 H 
ATOM     57  H   UNL     1     -47.683  42.876  26.636  1.00  0.00     0.046 H 
ENDBRANCH  49  54
ENDBRANCH  44  49
ENDBRANCH  31  35
ENDBRANCH   1  26
TORSDOF 10
ENDMDL
MODEL 4
REMARK VINA RESULT:      -8.9      2.425      5.384
REMARK SMILES CNc1ccc2ccc(OCc3cncc(-n4ccc5c(N)nc(N(C)C)nc54)c3)cc2n1
REMARK SMILES IDX 11 1 10 4 9 5 3 6 4 7 33 8 5 9 32 11 6 12 31 14 7 15 8 17
REMARK SMILES IDX 2 20 1 22 12 26 13 27 30 28 14 29 16 31 15 33 17 35 18 36
REMARK SMILES IDX 29 37 19 38 20 40 28 41 21 43 24 44 23 45 22 46 25 49 26 50
REMARK SMILES IDX 27 54
REMARK H PARENT 11 2 11 3 4 10 5 13 31 16 7 18 8 19 2 21 1 23 1 24 1 25 13 30
REMARK H PARENT 30 32 15 34 18 39 19 42 22 47 22 48 26 51 26 52 26 53 27 55
REMARK H PARENT 27 56 27 57
REMARK Flexibility Score: inf
ROOT
ATOM      1  C   UNL     1     -44.691  38.520  28.806  1.00  0.00     0.115 C 
ATOM      2  H   UNL     1     -44.505  37.933  29.716  1.00  0.00     0.076 H 
ATOM      3  H   UNL     1     -44.360  37.899  27.965  1.00  0.00     0.076 H 
ENDROOT
BRANCH   1   4
ATOM      4  O   UNL     1     -46.089  38.739  28.605  1.00  0.00    -0.489 OA
BRANCH   4   5
ATOM      5  C   UNL     1     -46.829  37.683  28.148  1.00  0.00     0.122 A 
ATOM      6  C   UNL     1     -46.527  33.495  25.902  1.00  0.00     0.126 A 
ATOM      7  C   UNL     1     -47.908  33.339  25.914  1.00  0.00    -0.019 A 
ATOM      8  N   UNL     1     -45.934  34.575  26.450  1.00  0.00    -0.231 NA
ATOM      9  C   UNL     1     -48.703  34.328  26.485  1.00  0.00    -0.049 A 
ATOM     10  H   UNL     1     -48.365  32.450  25.493  1.00  0.00     0.066 H 
ATOM     11  C   UNL     1     -46.696  35.534  27.006  1.00  0.00     0.076 A 
ATOM     12  C   UNL     1     -48.100  35.456  27.045  1.00  0.00     0.001 A 
ATOM     13  H   UNL     1     -49.782  34.208  26.492  1.00  0.00     0.063 H 
ATOM     14  C   UNL     1     -46.089  36.652  27.560  1.00  0.00     0.007 A 
ATOM     15  C   UNL     1     -48.853  36.489  27.626  1.00  0.00    -0.049 A 
ATOM     16  H   UNL     1     -45.004  36.724  27.530  1.00  0.00     0.069 H 
ATOM     17  C   UNL     1     -48.217  37.605  28.170  1.00  0.00    -0.019 A 
ATOM     18  H   UNL     1     -49.939  36.438  27.644  1.00  0.00     0.063 H 
ATOM     19  H   UNL     1     -48.831  38.402  28.577  1.00  0.00     0.066 H 
BRANCH   6  20
ATOM     20  N   UNL     1     -45.754  32.464  25.338  1.00  0.00    -0.373 N 
ATOM     21  H   UNL     1     -45.457  31.834  26.078  1.00  0.00     0.161 HD
BRANCH  20  22
ATOM     22  C   UNL     1     -46.410  31.752  24.253  1.00  0.00     0.005 C 
ATOM     23  H   UNL     1     -47.195  32.390  23.834  1.00  0.00     0.045 H 
ATOM     24  H   UNL     1     -45.710  31.514  23.444  1.00  0.00     0.045 H 
ATOM     25  H   UNL     1     -46.892  30.834  24.608  1.00  0.00     0.045 H 
ENDBRANCH  20  22
ENDBRANCH   6  20
ENDBRANCH   4   5
ENDBRANCH   1   4
BRANCH   1  26
ATOM     26  C   UNL     1     -43.862  39.779  28.787  1.00  0.00     0.010 A 
ATOM     27  C   UNL     1     -42.948  39.999  29.813  1.00  0.00     0.034 A 
ATOM     28  C   UNL     1     -43.913  40.728  27.755  1.00  0.00    -0.028 A 
ATOM     29  N   UNL     1     -42.123  41.064  29.879  1.00  0.00    -0.262 NA
ATOM     30  H   UNL     1     -42.843  39.298  30.637  1.00  0.00     0.084 H 
ATOM     31  C   UNL     1     -43.070  41.845  27.783  1.00  0.00     0.066 A 
ATOM     32  H   UNL     1     -44.590  40.553  26.925  1.00  0.00     0.065 H 
ATOM     33  C   UNL     1     -42.200  41.959  28.864  1.00  0.00     0.051 A 
ATOM     34  H   UNL     1     -41.526  42.798  28.992  1.00  0.00     0.086 H 
BRANCH  31  35
ATOM     35  N   UNL     1     -43.069  42.826  26.745  1.00  0.00    -0.300 N 
ATOM     36  C   UNL     1     -42.066  42.977  25.794  1.00  0.00     0.012 A 
ATOM     37  C   UNL     1     -44.041  43.791  26.474  1.00  0.00     0.152 A 
ATOM     38  C   UNL     1     -42.417  43.975  24.915  1.00  0.00    -0.031 A 
ATOM     39  H   UNL     1     -41.198  42.334  25.777  1.00  0.00     0.082 H 
ATOM     40  C   UNL     1     -43.659  44.496  25.342  1.00  0.00     0.062 A 
ATOM     41  N   UNL     1     -45.148  44.041  27.193  1.00  0.00    -0.194 NA
ATOM     42  H   UNL     1     -41.840  44.291  24.055  1.00  0.00     0.065 H 
ATOM     43  C   UNL     1     -44.525  45.501  24.911  1.00  0.00     0.138 A 
ATOM     44  C   UNL     1     -45.924  45.031  26.724  1.00  0.00     0.228 A 
ATOM     45  N   UNL     1     -45.643  45.744  25.614  1.00  0.00    -0.195 NA
BRANCH  43  46
ATOM     46  N   UNL     1     -44.285  46.300  23.798  1.00  0.00    -0.383 N 
ATOM     47  H   UNL     1     -43.344  46.240  23.435  1.00  0.00     0.158 HD
ATOM     48  H   UNL     1     -44.638  47.235  23.966  1.00  0.00     0.158 HD
ENDBRANCH  43  46
BRANCH  44  49
ATOM     49  N   UNL     1     -47.073  45.377  27.443  1.00  0.00    -0.347 N 
BRANCH  49  50
ATOM     50  C   UNL     1     -48.282  44.678  27.040  1.00  0.00     0.009 C 
ATOM     51  H   UNL     1     -49.077  45.383  26.777  1.00  0.00     0.046 H 
ATOM     52  H   UNL     1     -48.094  44.076  26.143  1.00  0.00     0.046 H 
ATOM     53  H   UNL     1     -48.639  44.002  27.827  1.00  0.00     0.046 H 
ENDBRANCH  49  50
BRANCH  49  54
ATOM     54  C   UNL     1     -47.200  46.799  27.718  1.00  0.00     0.009 C 
ATOM     55  H   UNL     1     -46.230  47.257  27.945  1.00  0.00     0.046 H 
ATOM     56  H   UNL     1     -47.662  47.330  26.878  1.00  0.00     0.046 H 
ATOM     57  H   UNL     1     -47.828  46.961  28.601  1.00  0.00     0.046 H 
ENDBRANCH  49  54
ENDBRANCH  44  49
ENDBRANCH  31  35
ENDBRANCH   1  26
TORSDOF 10
ENDMDL
MODEL 5
REMARK VINA RESULT:      -8.8      1.634      2.639
REMARK SMILES CNc1ccc2ccc(OCc3cncc(-n4ccc5c(N)nc(N(C)C)nc54)c3)cc2n1
REMARK SMILES IDX 11 1 10 4 9 5 3 6 4 7 33 8 5 9 32 11 6 12 31 14 7 15 8 17
REMARK SMILES IDX 2 20 1 22 12 26 13 27 30 28 14 29 16 31 15 33 17 35 18 36
REMARK SMILES IDX 29 37 19 38 20 40 28 41 21 43 24 44 23 45 22 46 25 49 26 50
REMARK SMILES IDX 27 54
REMARK H PARENT 11 2 11 3 4 10 5 13 31 16 7 18 8 19 2 21 1 23 1 24 1 25 13 30
REMARK H PARENT 30 32 15 34 18 39 19 42 22 47 22 48 26 51 26 52 26 53 27 55
REMARK H PARENT 27 56 27 57
REMARK Flexibility Score: inf
ROOT
ATOM      1  C   UNL     1     -46.699  36.628  26.871  1.00  0.00     0.115 C 
ATOM      2  H   UNL     1     -46.991  37.159  25.954  1.00  0.00     0.076 H 
ATOM      3  H   UNL     1     -47.630  36.402  27.405  1.00  0.00     0.076 H 
ENDROOT
BRANCH   1   4
ATOM      4  O   UNL     1     -46.100  35.365  26.572  1.00  0.00    -0.489 OA
BRANCH   4   5
ATOM      5  C   UNL     1     -46.933  34.359  26.164  1.00  0.00     0.122 A 
ATOM      6  C   UNL     1     -47.325  30.728  23.108  1.00  0.00     0.126 A 
ATOM      7  C   UNL     1     -48.622  30.456  23.530  1.00  0.00    -0.019 A 
ATOM      8  N   UNL     1     -46.602  31.728  23.652  1.00  0.00    -0.231 NA
ATOM      9  C   UNL     1     -49.198  31.244  24.521  1.00  0.00    -0.049 A 
ATOM     10  H   UNL     1     -49.177  29.630  23.100  1.00  0.00     0.066 H 
ATOM     11  C   UNL     1     -47.151  32.492  24.613  1.00  0.00     0.076 A 
ATOM     12  C   UNL     1     -48.462  32.289  25.083  1.00  0.00     0.001 A 
ATOM     13  H   UNL     1     -50.212  31.033  24.848  1.00  0.00     0.063 H 
ATOM     14  C   UNL     1     -46.413  33.529  25.165  1.00  0.00     0.007 A 
ATOM     15  C   UNL     1     -48.996  33.122  26.079  1.00  0.00    -0.049 A 
ATOM     16  H   UNL     1     -45.401  33.697  24.805  1.00  0.00     0.069 H 
ATOM     17  C   UNL     1     -48.234  34.160  26.614  1.00  0.00    -0.019 A 
ATOM     18  H   UNL     1     -50.014  32.976  26.434  1.00  0.00     0.063 H 
ATOM     19  H   UNL     1     -48.691  34.809  27.354  1.00  0.00     0.066 H 
BRANCH   6  20
ATOM     20  N   UNL     1     -46.766  29.896  22.121  1.00  0.00    -0.373 N 
ATOM     21  H   UNL     1     -46.972  30.287  21.206  1.00  0.00     0.161 HD
BRANCH  20  22
ATOM     22  C   UNL     1     -45.345  29.639  22.292  1.00  0.00     0.005 C 
ATOM     23  H   UNL     1     -45.204  28.584  22.544  1.00  0.00     0.045 H 
ATOM     24  H   UNL     1     -44.785  29.838  21.372  1.00  0.00     0.045 H 
ATOM     25  H   UNL     1     -44.927  30.229  23.116  1.00  0.00     0.045 H 
ENDBRANCH  20  22
ENDBRANCH   6  20
ENDBRANCH   4   5
ENDBRANCH   1   4
BRANCH   1  26
ATOM     26  C   UNL     1     -45.867  37.506  27.771  1.00  0.00     0.010 A 
ATOM     27  C   UNL     1     -45.592  37.075  29.066  1.00  0.00     0.034 A 
ATOM     28  C   UNL     1     -45.296  38.720  27.361  1.00  0.00    -0.028 A 
ATOM     29  N   UNL     1     -44.825  37.754  29.943  1.00  0.00    -0.262 NA
ATOM     30  H   UNL     1     -45.989  36.138  29.446  1.00  0.00     0.084 H 
ATOM     31  C   UNL     1     -44.489  39.452  28.239  1.00  0.00     0.066 A 
ATOM     32  H   UNL     1     -45.465  39.052  26.341  1.00  0.00     0.065 H 
ATOM     33  C   UNL     1     -44.290  38.922  29.511  1.00  0.00     0.051 A 
ATOM     34  H   UNL     1     -43.704  39.423  30.273  1.00  0.00     0.086 H 
BRANCH  31  35
ATOM     35  N   UNL     1     -43.868  40.681  27.861  1.00  0.00    -0.300 N 
ATOM     36  C   UNL     1     -42.543  41.014  28.119  1.00  0.00     0.012 A 
ATOM     37  C   UNL     1     -44.436  41.754  27.172  1.00  0.00     0.152 A 
ATOM     38  C   UNL     1     -42.265  42.242  27.563  1.00  0.00    -0.031 A 
ATOM     39  H   UNL     1     -41.876  40.338  28.633  1.00  0.00     0.082 H 
ATOM     40  C   UNL     1     -43.457  42.716  26.970  1.00  0.00     0.062 A 
ATOM     41  N   UNL     1     -45.719  41.877  26.791  1.00  0.00    -0.194 NA
ATOM     42  H   UNL     1     -41.305  42.741  27.581  1.00  0.00     0.065 H 
ATOM     43  C   UNL     1     -43.844  43.864  26.279  1.00  0.00     0.138 A 
ATOM     44  C   UNL     1     -46.018  43.014  26.144  1.00  0.00     0.228 A 
ATOM     45  N   UNL     1     -45.120  43.985  25.879  1.00  0.00    -0.195 NA
BRANCH  43  46
ATOM     46  N   UNL     1     -42.985  44.921  25.999  1.00  0.00    -0.383 N 
ATOM     47  H   UNL     1     -42.585  45.362  26.816  1.00  0.00     0.158 HD
ATOM     48  H   UNL     1     -43.416  45.544  25.325  1.00  0.00     0.158 HD
ENDBRANCH  43  46
BRANCH  44  49
ATOM     49  N   UNL     1     -47.343  43.232  25.754  1.00  0.00    -0.347 N 
BRANCH  49  50
ATOM     50  C   UNL     1     -47.616  44.559  25.227  1.00  0.00     0.009 C 
ATOM     51  H   UNL     1     -47.694  44.542  24.134  1.00  0.00     0.046 H 
ATOM     52  H   UNL     1     -48.580  44.926  25.599  1.00  0.00     0.046 H 
ATOM     53  H   UNL     1     -46.846  45.279  25.527  1.00  0.00     0.046 H 
ENDBRANCH  49  50
BRANCH  49  54
ATOM     54  C   UNL     1     -48.333  42.670  26.659  1.00  0.00     0.009 C 
ATOM     55  H   UNL     1     -47.863  42.157  27.506  1.00  0.00     0.046 H 
ATOM     56  H   UNL     1     -49.014  43.442  27.036  1.00  0.00     0.046 H 
ATOM     57  H   UNL     1     -48.937  41.917  26.142  1.00  0.00     0.046 H 
ENDBRANCH  49  54
ENDBRANCH  44  49
ENDBRANCH  31  35
ENDBRANCH   1  26
TORSDOF 10
ENDMDL
MODEL 6
REMARK VINA RESULT:      -8.7      1.585      2.720
REMARK SMILES CNc1ccc2ccc(OCc3cncc(-n4ccc5c(N)nc(N(C)C)nc54)c3)cc2n1
REMARK SMILES IDX 11 1 10 4 9 5 3 6 4 7 33 8 5 9 32 11 6 12 31 14 7 15 8 17
REMARK SMILES IDX 2 20 1 22 12 26 13 27 30 28 14 29 16 31 15 33 17 35 18 36
REMARK SMILES IDX 29 37 19 38 20 40 28 41 21 43 24 44 23 45 22 46 25 49 26 50
REMARK SMILES IDX 27 54
REMARK H PARENT 11 2 11 3 4 10 5 13 31 16 7 18 8 19 2 21 1 23 1 24 1 25 13 30
REMARK H PARENT 30 32 15 34 18 39 19 42 22 47 22 48 26 51 26 52 26 53 27 55
REMARK H PARENT 27 56 27 57
REMARK Flexibility Score: inf
ROOT
ATOM      1  C   UNL     1     -46.320  34.756  26.349  1.00  0.00     0.115 C 
ATOM      2  H   UNL     1     -45.313  34.374  26.128  1.00  0.00     0.076 H 
ATOM      3  H   UNL     1     -46.753  35.052  25.386  1.00  0.00     0.076 H 
ENDROOT
BRANCH   1   4
ATOM      4  O   UNL     1     -47.167  33.725  26.860  1.00  0.00    -0.489 OA
BRANCH   4   5
ATOM      5  C   UNL     1     -47.417  32.657  26.042  1.00  0.00     0.122 A 
ATOM      6  C   UNL     1     -46.487  30.839  21.741  1.00  0.00     0.126 A 
ATOM      7  C   UNL     1     -47.331  29.758  21.966  1.00  0.00    -0.019 A 
ATOM      8  N   UNL     1     -46.295  31.792  22.676  1.00  0.00    -0.231 NA
ATOM      9  C   UNL     1     -48.013  29.663  23.175  1.00  0.00    -0.049 A 
ATOM     10  H   UNL     1     -47.451  28.987  21.213  1.00  0.00     0.066 H 
ATOM     11  C   UNL     1     -46.948  31.705  23.848  1.00  0.00     0.076 A 
ATOM     12  C   UNL     1     -47.830  30.650  24.146  1.00  0.00     0.001 A 
ATOM     13  H   UNL     1     -48.675  28.820  23.351  1.00  0.00     0.063 H 
ATOM     14  C   UNL     1     -46.762  32.691  24.807  1.00  0.00     0.007 A 
ATOM     15  C   UNL     1     -48.499  30.611  25.380  1.00  0.00    -0.049 A 
ATOM     16  H   UNL     1     -46.086  33.513  24.584  1.00  0.00     0.069 H 
ATOM     17  C   UNL     1     -48.297  31.618  26.324  1.00  0.00    -0.019 A 
ATOM     18  H   UNL     1     -49.193  29.805  25.607  1.00  0.00     0.063 H 
ATOM     19  H   UNL     1     -48.860  31.577  27.251  1.00  0.00     0.066 H 
BRANCH   6  20
ATOM     20  N   UNL     1     -45.795  30.889  20.516  1.00  0.00    -0.373 N 
ATOM     21  H   UNL     1     -45.852  29.978  20.070  1.00  0.00     0.161 HD
BRANCH  20  22
ATOM     22  C   UNL     1     -46.233  31.953  19.627  1.00  0.00     0.005 C 
ATOM     23  H   UNL     1     -46.845  32.660  20.196  1.00  0.00     0.045 H 
ATOM     24  H   UNL     1     -45.384  32.508  19.213  1.00  0.00     0.045 H 
ATOM     25  H   UNL     1     -46.856  31.566  18.813  1.00  0.00     0.045 H 
ENDBRANCH  20  22
ENDBRANCH   6  20
ENDBRANCH   4   5
ENDBRANCH   1   4
BRANCH   1  26
ATOM     26  C   UNL     1     -46.260  35.990  27.213  1.00  0.00     0.010 A 
ATOM     27  C   UNL     1     -45.443  35.984  28.339  1.00  0.00     0.034 A 
ATOM     28  C   UNL     1     -46.942  37.179  26.916  1.00  0.00    -0.028 A 
ATOM     29  N   UNL     1     -45.276  37.042  29.160  1.00  0.00    -0.262 NA
ATOM     30  H   UNL     1     -44.874  35.103  28.621  1.00  0.00     0.084 H 
ATOM     31  C   UNL     1     -46.793  38.301  27.740  1.00  0.00     0.066 A 
ATOM     32  H   UNL     1     -47.552  37.216  26.019  1.00  0.00     0.065 H 
ATOM     33  C   UNL     1     -45.950  38.174  28.841  1.00  0.00     0.051 A 
ATOM     34  H   UNL     1     -45.787  38.975  29.554  1.00  0.00     0.086 H 
BRANCH  31  35
ATOM     35  N   UNL     1     -47.447  39.541  27.467  1.00  0.00    -0.300 N 
ATOM     36  C   UNL     1     -48.768  39.830  27.789  1.00  0.00     0.012 A 
ATOM     37  C   UNL     1     -46.915  40.676  26.854  1.00  0.00     0.152 A 
ATOM     38  C   UNL     1     -49.049  41.131  27.437  1.00  0.00    -0.031 A 
ATOM     39  H   UNL     1     -49.401  39.113  28.291  1.00  0.00     0.082 H 
ATOM     40  C   UNL     1     -47.885  41.667  26.842  1.00  0.00     0.062 A 
ATOM     41  N   UNL     1     -45.686  40.802  26.323  1.00  0.00    -0.194 NA
ATOM     42  H   UNL     1     -49.991  41.639  27.597  1.00  0.00     0.065 H 
ATOM     43  C   UNL     1     -47.523  42.889  26.275  1.00  0.00     0.138 A 
ATOM     44  C   UNL     1     -45.416  42.002  25.784  1.00  0.00     0.228 A 
ATOM     45  N   UNL     1     -46.291  43.028  25.759  1.00  0.00    -0.195 NA
BRANCH  43  46
ATOM     46  N   UNL     1     -48.380  43.980  26.182  1.00  0.00    -0.383 N 
ATOM     47  H   UNL     1     -48.071  44.799  26.686  1.00  0.00     0.158 HD
ATOM     48  H   UNL     1     -49.333  43.683  26.359  1.00  0.00     0.158 HD
ENDBRANCH  43  46
BRANCH  44  49
ATOM     49  N   UNL     1     -44.172  42.195  25.174  1.00  0.00    -0.347 N 
BRANCH  49  50
ATOM     50  C   UNL     1     -43.082  42.495  26.087  1.00  0.00     0.009 C 
ATOM     51  H   UNL     1     -43.296  43.394  26.676  1.00  0.00     0.046 H 
ATOM     52  H   UNL     1     -42.952  41.678  26.807  1.00  0.00     0.046 H 
ATOM     53  H   UNL     1     -42.133  42.625  25.554  1.00  0.00     0.046 H 
ENDBRANCH  49  50
BRANCH  49  54
ATOM     54  C   UNL     1     -44.224  42.964  23.941  1.00  0.00     0.009 C 
ATOM     55  H   UNL     1     -43.418  43.705  23.890  1.00  0.00     0.046 H 
ATOM     56  H   UNL     1     -44.173  42.313  23.060  1.00  0.00     0.046 H 
ATOM     57  H   UNL     1     -45.162  43.528  23.883  1.00  0.00     0.046 H 
ENDBRANCH  49  54
ENDBRANCH  44  49
ENDBRANCH  31  35
ENDBRANCH   1  26
TORSDOF 10
ENDMDL
MODEL 7
REMARK VINA RESULT:      -8.6      2.594      4.150
REMARK SMILES CNc1ccc2ccc(OCc3cncc(-n4ccc5c(N)nc(N(C)C)nc54)c3)cc2n1
REMARK SMILES IDX 11 1 10 4 9 5 3 6 4 7 33 8 5 9 32 11 6 12 31 14 7 15 8 17
REMARK SMILES IDX 2 20 1 22 12 26 13 27 30 28 14 29 16 31 15 33 17 35 18 36
REMARK SMILES IDX 29 37 19 38 20 40 28 41 21 43 24 44 23 45 22 46 25 49 26 50
REMARK SMILES IDX 27 54
REMARK H PARENT 11 2 11 3 4 10 5 13 31 16 7 18 8 19 2 21 1 23 1 24 1 25 13 30
REMARK H PARENT 30 32 15 34 18 39 19 42 22 47 22 48 26 51 26 52 26 53 27 55
REMARK H PARENT 27 56 27 57
REMARK Flexibility Score: inf
ROOT
ATOM      1  C   UNL     1     -46.277  33.811  25.350  1.00  0.00     0.115 C 
ATOM      2  H   UNL     1     -45.506  33.057  25.559  1.00  0.00     0.076 H 
ATOM      3  H   UNL     1     -45.839  34.505  24.623  1.00  0.00     0.076 H 
ENDROOT
BRANCH   1   4
ATOM      4  O   UNL     1     -47.411  33.229  24.704  1.00  0.00    -0.489 OA
BRANCH   4   5
ATOM      5  C   UNL     1     -47.340  31.899  24.392  1.00  0.00     0.122 A 
ATOM      6  C   UNL     1     -48.956  27.594  25.628  1.00  0.00     0.126 A 
ATOM      7  C   UNL     1     -48.157  26.972  24.676  1.00  0.00    -0.019 A 
ATOM      8  N   UNL     1     -48.961  28.934  25.779  1.00  0.00    -0.231 NA
ATOM      9  C   UNL     1     -47.323  27.744  23.872  1.00  0.00    -0.049 A 
ATOM     10  H   UNL     1     -48.188  25.895  24.550  1.00  0.00     0.066 H 
ATOM     11  C   UNL     1     -48.161  29.687  25.003  1.00  0.00     0.076 A 
ATOM     12  C   UNL     1     -47.312  29.131  24.028  1.00  0.00     0.001 A 
ATOM     13  H   UNL     1     -46.697  27.258  23.130  1.00  0.00     0.063 H 
ATOM     14  C   UNL     1     -48.154  31.065  25.165  1.00  0.00     0.007 A 
ATOM     15  C   UNL     1     -46.485  29.959  23.251  1.00  0.00    -0.049 A 
ATOM     16  H   UNL     1     -48.802  31.503  25.921  1.00  0.00     0.069 H 
ATOM     17  C   UNL     1     -46.494  31.341  23.439  1.00  0.00    -0.019 A 
ATOM     18  H   UNL     1     -45.817  29.531  22.507  1.00  0.00     0.063 H 
ATOM     19  H   UNL     1     -45.815  31.947  22.849  1.00  0.00     0.066 H 
BRANCH   6  20
ATOM     20  N   UNL     1     -49.804  26.783  26.405  1.00  0.00    -0.373 N 
ATOM     21  H   UNL     1     -50.727  27.206  26.435  1.00  0.00     0.161 HD
BRANCH  20  22
ATOM     22  C   UNL     1     -49.859  25.395  25.976  1.00  0.00     0.005 C 
ATOM     23  H   UNL     1     -49.376  24.770  26.734  1.00  0.00     0.045 H 
ATOM     24  H   UNL     1     -50.892  25.046  25.869  1.00  0.00     0.045 H 
ATOM     25  H   UNL     1     -49.317  25.243  25.037  1.00  0.00     0.045 H 
ENDBRANCH  20  22
ENDBRANCH   6  20
ENDBRANCH   4   5
ENDBRANCH   1   4
BRANCH   1  26
ATOM     26  C   UNL     1     -46.613  34.607  26.586  1.00  0.00     0.010 A 
ATOM     27  C   UNL     1     -46.223  34.119  27.829  1.00  0.00     0.034 A 
ATOM     28  C   UNL     1     -47.253  35.855  26.555  1.00  0.00    -0.028 A 
ATOM     29  N   UNL     1     -46.429  34.764  28.995  1.00  0.00    -0.262 NA
ATOM     30  H   UNL     1     -45.709  33.166  27.927  1.00  0.00     0.084 H 
ATOM     31  C   UNL     1     -47.481  36.560  27.743  1.00  0.00     0.066 A 
ATOM     32  H   UNL     1     -47.528  36.272  25.591  1.00  0.00     0.065 H 
ATOM     33  C   UNL     1     -47.049  35.967  28.926  1.00  0.00     0.051 A 
ATOM     34  H   UNL     1     -47.201  36.418  29.900  1.00  0.00     0.086 H 
BRANCH  31  35
ATOM     35  N   UNL     1     -48.108  37.843  27.761  1.00  0.00    -0.300 N 
ATOM     36  C   UNL     1     -49.420  38.082  28.154  1.00  0.00     0.012 A 
ATOM     37  C   UNL     1     -47.551  39.074  27.412  1.00  0.00     0.152 A 
ATOM     38  C   UNL     1     -49.671  39.434  28.104  1.00  0.00    -0.031 A 
ATOM     39  H   UNL     1     -50.067  37.285  28.489  1.00  0.00     0.082 H 
ATOM     40  C   UNL     1     -48.498  40.064  27.631  1.00  0.00     0.062 A 
ATOM     41  N   UNL     1     -46.323  39.289  26.909  1.00  0.00    -0.194 NA
ATOM     42  H   UNL     1     -50.600  39.914  28.383  1.00  0.00     0.065 H 
ATOM     43  C   UNL     1     -48.110  41.373  27.348  1.00  0.00     0.138 A 
ATOM     44  C   UNL     1     -46.027  40.573  26.649  1.00  0.00     0.228 A 
ATOM     45  N   UNL     1     -46.877  41.597  26.864  1.00  0.00    -0.195 NA
BRANCH  43  46
ATOM     46  N   UNL     1     -48.941  42.476  27.510  1.00  0.00    -0.383 N 
ATOM     47  H   UNL     1     -49.918  42.249  27.638  1.00  0.00     0.158 HD
ATOM     48  H   UNL     1     -48.736  43.168  26.797  1.00  0.00     0.158 HD
ENDBRANCH  43  46
BRANCH  44  49
ATOM     49  N   UNL     1     -44.782  40.870  26.085  1.00  0.00    -0.347 N 
BRANCH  49  50
ATOM     50  C   UNL     1     -43.642  40.625  26.953  1.00  0.00     0.009 C 
ATOM     51  H   UNL     1     -42.774  40.287  26.377  1.00  0.00     0.046 H 
ATOM     52  H   UNL     1     -43.339  41.552  27.454  1.00  0.00     0.046 H 
ATOM     53  H   UNL     1     -43.877  39.886  27.728  1.00  0.00     0.046 H 
ENDBRANCH  49  50
BRANCH  49  54
ATOM     54  C   UNL     1     -44.758  42.095  25.302  1.00  0.00     0.009 C 
ATOM     55  H   UNL     1     -44.083  42.841  25.736  1.00  0.00     0.046 H 
ATOM     56  H   UNL     1     -44.464  41.901  24.264  1.00  0.00     0.046 H 
ATOM     57  H   UNL     1     -45.752  42.556  25.286  1.00  0.00     0.046 H 
ENDBRANCH  49  54
ENDBRANCH  44  49
ENDBRANCH  31  35
ENDBRANCH   1  26
TORSDOF 10
ENDMDL
