MODEL 1
REMARK VINA RESULT:      -9.9      0.000      0.000
REMARK SMILES CCc1cc(N(C)CC2CC2)c2ccc(OCc3cncc(-n4cc(-c5ccn(C)n5)c5c(N)ncnc54)c3)cc2n1
REMARK SMILES IDX 17 1 16 4 15 5 3 6 4 7 42 8 5 9 41 11 12 12 40 13 13 14
REMARK SMILES IDX 14 16 2 19 1 22 6 26 7 27 8 31 9 34 10 35 11 36 18 42 19 43
REMARK SMILES IDX 39 44 20 45 22 47 21 49 23 51 24 52 38 53 25 54 32 56 37 57
REMARK SMILES IDX 33 58 36 59 35 60 26 62 27 63 31 64 28 65 29 67 30 69 34 73
REMARK H PARENT 17 2 17 3 4 10 40 15 13 17 14 18 2 20 2 21 1 23 1 24 1 25 7 28
REMARK H PARENT 7 29 7 30 8 32 8 33 9 37 10 38 10 39 11 40 11 41 19 46 39 48
REMARK H PARENT 21 50 24 55 36 61 27 66 28 68 30 70 30 71 30 72 34 74 34 75
REMARK Flexibility Score: inf
ROOT
ATOM      1  C   UNL     1     -46.117  34.629  27.779  1.00  0.00     0.115 C 
ATOM      2  H   UNL     1     -45.247  34.348  27.171  1.00  0.00     0.076 H 
ATOM      3  H   UNL     1     -46.259  33.810  28.494  1.00  0.00     0.076 H 
ENDROOT
BRANCH   1   4
ATOM      4  O   UNL     1     -47.302  34.679  26.980  1.00  0.00    -0.489 OA
BRANCH   4   5
ATOM      5  C   UNL     1     -47.564  33.649  26.122  1.00  0.00     0.122 A 
ATOM      6  C   UNL     1     -46.438  30.445  22.795  1.00  0.00     0.043 A 
ATOM      7  C   UNL     1     -47.728  29.934  22.737  1.00  0.00    -0.016 A 
ATOM      8  N   UNL     1     -46.089  31.454  23.623  1.00  0.00    -0.253 NA
ATOM      9  C   UNL     1     -48.717  30.478  23.562  1.00  0.00     0.048 A 
ATOM     10  H   UNL     1     -47.957  29.132  22.046  1.00  0.00     0.066 H 
ATOM     11  C   UNL     1     -47.029  31.993  24.417  1.00  0.00     0.076 A 
ATOM     12  C   UNL     1     -48.365  31.543  24.429  1.00  0.00     0.024 A 
ATOM     13  C   UNL     1     -46.655  33.037  25.258  1.00  0.00     0.007 A 
ATOM     14  C   UNL     1     -49.282  32.164  25.304  1.00  0.00    -0.047 A 
ATOM     15  H   UNL     1     -45.622  33.358  25.200  1.00  0.00     0.069 H 
ATOM     16  C   UNL     1     -48.882  33.207  26.138  1.00  0.00    -0.019 A 
ATOM     17  H   UNL     1     -50.315  31.826  25.338  1.00  0.00     0.063 H 
ATOM     18  H   UNL     1     -49.606  33.672  26.802  1.00  0.00     0.066 H 
BRANCH   6  19
ATOM     19  C   UNL     1     -45.348  29.866  21.933  1.00  0.00    -0.013 C 
ATOM     20  H   UNL     1     -45.749  29.606  20.946  1.00  0.00     0.033 H 
ATOM     21  H   UNL     1     -44.578  30.628  21.765  1.00  0.00     0.033 H 
BRANCH  19  22
ATOM     22  C   UNL     1     -44.714  28.644  22.580  1.00  0.00    -0.060 C 
ATOM     23  H   UNL     1     -43.713  28.457  22.177  1.00  0.00     0.023 H 
ATOM     24  H   UNL     1     -45.326  27.756  22.393  1.00  0.00     0.023 H 
ATOM     25  H   UNL     1     -44.622  28.771  23.664  1.00  0.00     0.023 H 
ENDBRANCH  19  22
ENDBRANCH   6  19
BRANCH   9  26
ATOM     26  N   UNL     1     -50.063  30.015  23.519  1.00  0.00    -0.374 N 
BRANCH  26  27
ATOM     27  C   UNL     1     -50.246  28.679  24.091  1.00  0.00     0.006 C 
ATOM     28  H   UNL     1     -49.841  28.604  25.106  1.00  0.00     0.046 H 
ATOM     29  H   UNL     1     -51.305  28.397  24.107  1.00  0.00     0.046 H 
ATOM     30  H   UNL     1     -49.737  27.935  23.469  1.00  0.00     0.046 H 
ENDBRANCH  26  27
BRANCH  26  31
ATOM     31  C   UNL     1     -50.627  30.207  22.171  1.00  0.00     0.020 C 
ATOM     32  H   UNL     1     -50.749  29.242  21.662  1.00  0.00     0.050 H 
ATOM     33  H   UNL     1     -49.954  30.818  21.554  1.00  0.00     0.050 H 
BRANCH  31  34
ATOM     34  C   UNL     1     -51.932  30.943  22.262  1.00  0.00    -0.024 C 
ATOM     35  C   UNL     1     -52.057  32.148  23.162  1.00  0.00    -0.048 C 
ATOM     36  C   UNL     1     -52.101  32.323  21.671  1.00  0.00    -0.048 C 
ATOM     37  H   UNL     1     -52.778  30.265  22.234  1.00  0.00     0.032 H 
ATOM     38  H   UNL     1     -52.980  32.271  23.716  1.00  0.00     0.027 H 
ATOM     39  H   UNL     1     -51.176  32.499  23.688  1.00  0.00     0.027 H 
ATOM     40  H   UNL     1     -53.056  32.560  21.214  1.00  0.00     0.027 H 
ATOM     41  H   UNL     1     -51.250  32.791  21.190  1.00  0.00     0.027 H 
ENDBRANCH  31  34
ENDBRANCH  26  31
ENDBRANCH   9  26
ENDBRANCH   4   5
ENDBRANCH   1   4
BRANCH   1  42
ATOM     42  C   UNL     1     -45.882  35.885  28.577  1.00  0.00     0.010 A 
ATOM     43  C   UNL     1     -46.202  35.924  29.927  1.00  0.00     0.034 A 
ATOM     44  C   UNL     1     -45.392  37.062  27.992  1.00  0.00    -0.028 A 
ATOM     45  N   UNL     1     -46.047  37.016  30.705  1.00  0.00    -0.262 NA
ATOM     46  H   UNL     1     -46.602  35.056  30.442  1.00  0.00     0.084 H 
ATOM     47  C   UNL     1     -45.210  38.215  28.760  1.00  0.00     0.066 A 
ATOM     48  H   UNL     1     -45.137  37.030  26.937  1.00  0.00     0.065 H 
ATOM     49  C   UNL     1     -45.552  38.129  30.108  1.00  0.00     0.051 A 
ATOM     50  H   UNL     1     -45.474  38.963  30.796  1.00  0.00     0.086 H 
BRANCH  47  51
ATOM     51  N   UNL     1     -44.694  39.435  28.212  1.00  0.00    -0.299 N 
ATOM     52  C   UNL     1     -45.203  40.078  27.095  1.00  0.00     0.021 A 
ATOM     53  C   UNL     1     -43.621  40.200  28.674  1.00  0.00     0.150 A 
ATOM     54  C   UNL     1     -44.489  41.234  26.858  1.00  0.00     0.033 A 
ATOM     55  H   UNL     1     -46.068  39.700  26.570  1.00  0.00     0.083 H 
ATOM     56  C   UNL     1     -43.464  41.310  27.842  1.00  0.00     0.071 A 
ATOM     57  N   UNL     1     -42.835  39.912  29.731  1.00  0.00    -0.218 NA
ATOM     58  C   UNL     1     -42.398  42.179  28.146  1.00  0.00     0.137 A 
ATOM     59  C   UNL     1     -41.876  40.823  29.935  1.00  0.00     0.120 A 
ATOM     60  N   UNL     1     -41.625  41.926  29.218  1.00  0.00    -0.219 NA
ATOM     61  H   UNL     1     -41.222  40.648  30.783  1.00  0.00     0.106 H 
BRANCH  54  62
ATOM     62  C   UNL     1     -44.759  42.206  25.794  1.00  0.00     0.095 A 
ATOM     63  C   UNL     1     -44.044  42.279  24.577  1.00  0.00    -0.016 A 
ATOM     64  N   UNL     1     -45.739  43.119  25.848  1.00  0.00    -0.173 NA
ATOM     65  C   UNL     1     -44.635  43.307  23.878  1.00  0.00     0.025 A 
ATOM     66  H   UNL     1     -43.211  41.676  24.251  1.00  0.00     0.066 H 
ATOM     67  N   UNL     1     -45.635  43.775  24.677  1.00  0.00    -0.275 N 
ATOM     68  H   UNL     1     -44.427  43.731  22.905  1.00  0.00     0.084 H 
BRANCH  67  69
ATOM     69  C   UNL     1     -46.543  44.859  24.387  1.00  0.00     0.030 C 
ATOM     70  H   UNL     1     -45.955  45.763  24.215  1.00  0.00     0.048 H 
ATOM     71  H   UNL     1     -47.126  44.616  23.495  1.00  0.00     0.048 H 
ATOM     72  H   UNL     1     -47.208  44.989  25.245  1.00  0.00     0.048 H 
ENDBRANCH  67  69
ENDBRANCH  54  62
BRANCH  58  73
ATOM     73  N   UNL     1     -42.075  43.305  27.403  1.00  0.00    -0.383 N 
ATOM     74  H   UNL     1     -42.799  43.545  26.720  1.00  0.00     0.158 HD
ATOM     75  H   UNL     1     -41.738  44.053  27.993  1.00  0.00     0.158 HD
ENDBRANCH  58  73
ENDBRANCH  47  51
ENDBRANCH   1  42
TORSDOF 13
ENDMDL
MODEL 2
REMARK VINA RESULT:      -9.7      1.287      2.366
REMARK SMILES CCc1cc(N(C)CC2CC2)c2ccc(OCc3cncc(-n4cc(-c5ccn(C)n5)c5c(N)ncnc54)c3)cc2n1
REMARK SMILES IDX 17 1 16 4 15 5 3 6 4 7 42 8 5 9 41 11 12 12 40 13 13 14
REMARK SMILES IDX 14 16 2 19 1 22 6 26 7 27 8 31 9 34 10 35 11 36 18 42 19 43
REMARK SMILES IDX 39 44 20 45 22 47 21 49 23 51 24 52 38 53 25 54 32 56 37 57
REMARK SMILES IDX 33 58 36 59 35 60 26 62 27 63 31 64 28 65 29 67 30 69 34 73
REMARK H PARENT 17 2 17 3 4 10 40 15 13 17 14 18 2 20 2 21 1 23 1 24 1 25 7 28
REMARK H PARENT 7 29 7 30 8 32 8 33 9 37 10 38 10 39 11 40 11 41 19 46 39 48
REMARK H PARENT 21 50 24 55 36 61 27 66 28 68 30 70 30 71 30 72 34 74 34 75
REMARK Flexibility Score: inf
ROOT
ATOM      1  C   UNL     1     -45.962  34.535  27.757  1.00  0.00     0.115 C 
ATOM      2  H   UNL     1     -45.107  34.369  27.089  1.00  0.00     0.076 H 
ATOM      3  H   UNL     1     -45.944  33.708  28.478  1.00  0.00     0.076 H 
ENDROOT
BRANCH   1   4
ATOM      4  O   UNL     1     -47.196  34.421  27.043  1.00  0.00    -0.489 OA
BRANCH   4   5
ATOM      5  C   UNL     1     -47.365  33.377  26.178  1.00  0.00     0.122 A 
ATOM      6  C   UNL     1     -46.479  30.901  22.217  1.00  0.00     0.043 A 
ATOM      7  C   UNL     1     -47.414  29.922  22.525  1.00  0.00    -0.016 A 
ATOM      8  N   UNL     1     -46.240  31.960  23.021  1.00  0.00    -0.253 NA
ATOM      9  C   UNL     1     -48.148  30.025  23.711  1.00  0.00     0.048 A 
ATOM     10  H   UNL     1     -47.575  29.099  21.839  1.00  0.00     0.066 H 
ATOM     11  C   UNL     1     -46.941  32.078  24.161  1.00  0.00     0.076 A 
ATOM     12  C   UNL     1     -47.912  31.137  24.558  1.00  0.00     0.024 A 
ATOM     13  C   UNL     1     -46.689  33.180  24.973  1.00  0.00     0.007 A 
ATOM     14  C   UNL     1     -48.594  31.339  25.777  1.00  0.00    -0.047 A 
ATOM     15  H   UNL     1     -45.946  33.884  24.617  1.00  0.00     0.069 H 
ATOM     16  C   UNL     1     -48.322  32.449  26.574  1.00  0.00    -0.019 A 
ATOM     17  H   UNL     1     -49.339  30.620  26.109  1.00  0.00     0.063 H 
ATOM     18  H   UNL     1     -48.861  32.586  27.509  1.00  0.00     0.066 H 
BRANCH   6  19
ATOM     19  C   UNL     1     -45.659  30.805  20.958  1.00  0.00    -0.013 C 
ATOM     20  H   UNL     1     -44.594  30.912  21.196  1.00  0.00     0.033 H 
ATOM     21  H   UNL     1     -45.782  29.806  20.523  1.00  0.00     0.033 H 
BRANCH  19  22
ATOM     22  C   UNL     1     -46.076  31.854  19.938  1.00  0.00    -0.060 C 
ATOM     23  H   UNL     1     -45.819  32.862  20.280  1.00  0.00     0.023 H 
ATOM     24  H   UNL     1     -47.158  31.815  19.776  1.00  0.00     0.023 H 
ATOM     25  H   UNL     1     -45.582  31.689  18.975  1.00  0.00     0.023 H 
ENDBRANCH  19  22
ENDBRANCH   6  19
BRANCH   9  26
ATOM     26  N   UNL     1     -49.144  29.068  24.059  1.00  0.00    -0.374 N 
BRANCH  26  27
ATOM     27  C   UNL     1     -50.515  29.548  23.871  1.00  0.00     0.006 C 
ATOM     28  H   UNL     1     -51.053  29.644  24.821  1.00  0.00     0.046 H 
ATOM     29  H   UNL     1     -50.528  30.514  23.354  1.00  0.00     0.046 H 
ATOM     30  H   UNL     1     -51.071  28.850  23.238  1.00  0.00     0.046 H 
ENDBRANCH  26  27
BRANCH  26  31
ATOM     31  C   UNL     1     -48.854  28.488  25.382  1.00  0.00     0.020 C 
ATOM     32  H   UNL     1     -49.761  28.459  25.999  1.00  0.00     0.050 H 
ATOM     33  H   UNL     1     -48.115  29.098  25.918  1.00  0.00     0.050 H 
BRANCH  31  34
ATOM     34  C   UNL     1     -48.261  27.117  25.222  1.00  0.00    -0.024 C 
ATOM     35  C   UNL     1     -47.801  26.349  26.436  1.00  0.00    -0.048 C 
ATOM     36  C   UNL     1     -49.005  25.881  25.668  1.00  0.00    -0.048 C 
ATOM     37  H   UNL     1     -47.637  27.051  24.337  1.00  0.00     0.032 H 
ATOM     38  H   UNL     1     -46.889  25.770  26.353  1.00  0.00     0.027 H 
ATOM     39  H   UNL     1     -47.962  26.780  27.418  1.00  0.00     0.027 H 
ATOM     40  H   UNL     1     -48.906  24.989  25.060  1.00  0.00     0.027 H 
ATOM     41  H   UNL     1     -49.978  25.997  26.131  1.00  0.00     0.027 H 
ENDBRANCH  31  34
ENDBRANCH  26  31
ENDBRANCH   9  26
ENDBRANCH   4   5
ENDBRANCH   1   4
BRANCH   1  42
ATOM     42  C   UNL     1     -45.844  35.815  28.541  1.00  0.00     0.010 A 
ATOM     43  C   UNL     1     -46.267  35.867  29.862  1.00  0.00     0.034 A 
ATOM     44  C   UNL     1     -45.362  37.002  27.968  1.00  0.00    -0.028 A 
ATOM     45  N   UNL     1     -46.218  36.979  30.625  1.00  0.00    -0.262 NA
ATOM     46  H   UNL     1     -46.667  34.991  30.366  1.00  0.00     0.084 H 
ATOM     47  C   UNL     1     -45.288  38.177  28.722  1.00  0.00     0.066 A 
ATOM     48  H   UNL     1     -45.026  36.961  26.937  1.00  0.00     0.065 H 
ATOM     49  C   UNL     1     -45.728  38.101  30.041  1.00  0.00     0.051 A 
ATOM     50  H   UNL     1     -45.739  38.951  30.714  1.00  0.00     0.086 H 
BRANCH  47  51
ATOM     51  N   UNL     1     -44.786  39.407  28.186  1.00  0.00    -0.299 N 
ATOM     52  C   UNL     1     -45.319  40.071  27.093  1.00  0.00     0.021 A 
ATOM     53  C   UNL     1     -43.703  40.164  28.639  1.00  0.00     0.150 A 
ATOM     54  C   UNL     1     -44.611  41.232  26.863  1.00  0.00     0.033 A 
ATOM     55  H   UNL     1     -46.195  39.702  26.580  1.00  0.00     0.083 H 
ATOM     56  C   UNL     1     -43.564  41.290  27.825  1.00  0.00     0.071 A 
ATOM     57  N   UNL     1     -42.894  39.857  29.673  1.00  0.00    -0.218 NA
ATOM     58  C   UNL     1     -42.493  42.154  28.123  1.00  0.00     0.137 A 
ATOM     59  C   UNL     1     -41.932  40.765  29.874  1.00  0.00     0.120 A 
ATOM     60  N   UNL     1     -41.697  41.881  29.173  1.00  0.00    -0.219 NA
ATOM     61  H   UNL     1     -41.259  40.574  30.704  1.00  0.00     0.106 H 
BRANCH  54  62
ATOM     62  C   UNL     1     -44.905  42.224  25.824  1.00  0.00     0.095 A 
ATOM     63  C   UNL     1     -46.029  43.081  25.832  1.00  0.00    -0.016 A 
ATOM     64  N   UNL     1     -44.118  42.450  24.763  1.00  0.00    -0.173 NA
ATOM     65  C   UNL     1     -45.900  43.849  24.697  1.00  0.00     0.025 A 
ATOM     66  H   UNL     1     -46.829  43.132  26.555  1.00  0.00     0.066 H 
ATOM     67  N   UNL     1     -44.751  43.433  24.095  1.00  0.00    -0.275 N 
ATOM     68  H   UNL     1     -46.519  44.632  24.282  1.00  0.00     0.084 H 
BRANCH  67  69
ATOM     69  C   UNL     1     -44.185  43.934  22.865  1.00  0.00     0.030 C 
ATOM     70  H   UNL     1     -43.730  44.906  23.067  1.00  0.00     0.048 H 
ATOM     71  H   UNL     1     -43.426  43.235  22.503  1.00  0.00     0.048 H 
ATOM     72  H   UNL     1     -44.988  44.028  22.130  1.00  0.00     0.048 H 
ENDBRANCH  67  69
ENDBRANCH  54  62
BRANCH  58  73
ATOM     73  N   UNL     1     -42.187  43.295  27.395  1.00  0.00    -0.383 N 
ATOM     74  H   UNL     1     -41.260  43.667  27.620  1.00  0.00     0.158 HD
ATOM     75  H   UNL     1     -42.407  43.179  26.416  1.00  0.00     0.158 HD
ENDBRANCH  58  73
ENDBRANCH  47  51
ENDBRANCH   1  42
TORSDOF 13
ENDMDL
MODEL 3
REMARK VINA RESULT:      -9.6      2.334      3.694
REMARK SMILES CCc1cc(N(C)CC2CC2)c2ccc(OCc3cncc(-n4cc(-c5ccn(C)n5)c5c(N)ncnc54)c3)cc2n1
REMARK SMILES IDX 17 1 16 4 15 5 3 6 4 7 42 8 5 9 41 11 12 12 40 13 13 14
REMARK SMILES IDX 14 16 2 19 1 22 6 26 7 27 8 31 9 34 10 35 11 36 18 42 19 43
REMARK SMILES IDX 39 44 20 45 22 47 21 49 23 51 24 52 38 53 25 54 32 56 37 57
REMARK SMILES IDX 33 58 36 59 35 60 26 62 27 63 31 64 28 65 29 67 30 69 34 73
REMARK H PARENT 17 2 17 3 4 10 40 15 13 17 14 18 2 20 2 21 1 23 1 24 1 25 7 28
REMARK H PARENT 7 29 7 30 8 32 8 33 9 37 10 38 10 39 11 40 11 41 19 46 39 48
REMARK H PARENT 21 50 24 55 36 61 27 66 28 68 30 70 30 71 30 72 34 74 34 75
REMARK Flexibility Score: inf
ROOT
ATOM      1  C   UNL     1     -48.081  34.914  26.632  1.00  0.00     0.115 C 
ATOM      2  H   UNL     1     -49.138  35.156  26.801  1.00  0.00     0.076 H 
ATOM      3  H   UNL     1     -47.933  34.961  25.546  1.00  0.00     0.076 H 
ENDROOT
BRANCH   1   4
ATOM      4  O   UNL     1     -47.798  33.568  27.022  1.00  0.00    -0.489 OA
BRANCH   4   5
ATOM      5  C   UNL     1     -47.695  32.608  26.056  1.00  0.00     0.122 A 
ATOM      6  C   UNL     1     -46.331  30.900  21.834  1.00  0.00     0.043 A 
ATOM      7  C   UNL     1     -46.912  29.659  22.058  1.00  0.00    -0.016 A 
ATOM      8  N   UNL     1     -46.374  31.901  22.740  1.00  0.00    -0.253 NA
ATOM      9  C   UNL     1     -47.577  29.424  23.266  1.00  0.00     0.048 A 
ATOM     10  H   UNL     1     -46.857  28.894  21.293  1.00  0.00     0.066 H 
ATOM     11  C   UNL     1     -47.015  31.694  23.903  1.00  0.00     0.076 A 
ATOM     12  C   UNL     1     -47.637  30.470  24.221  1.00  0.00     0.024 A 
ATOM     13  C   UNL     1     -47.059  32.739  24.820  1.00  0.00     0.007 A 
ATOM     14  C   UNL     1     -48.279  30.341  25.471  1.00  0.00    -0.047 A 
ATOM     15  H   UNL     1     -46.580  33.665  24.523  1.00  0.00     0.069 H 
ATOM     16  C   UNL     1     -48.307  31.401  26.375  1.00  0.00    -0.019 A 
ATOM     17  H   UNL     1     -48.756  29.402  25.743  1.00  0.00     0.063 H 
ATOM     18  H   UNL     1     -48.810  31.280  27.331  1.00  0.00     0.066 H 
BRANCH   6  19
ATOM     19  C   UNL     1     -45.591  31.176  20.552  1.00  0.00    -0.013 C 
ATOM     20  H   UNL     1     -44.607  31.608  20.773  1.00  0.00     0.033 H 
ATOM     21  H   UNL     1     -45.405  30.228  20.032  1.00  0.00     0.033 H 
BRANCH  19  22
ATOM     22  C   UNL     1     -46.379  32.104  19.640  1.00  0.00    -0.060 C 
ATOM     23  H   UNL     1     -47.456  32.003  19.809  1.00  0.00     0.023 H 
ATOM     24  H   UNL     1     -46.175  31.868  18.591  1.00  0.00     0.023 H 
ATOM     25  H   UNL     1     -46.108  33.151  19.811  1.00  0.00     0.023 H 
ENDBRANCH  19  22
ENDBRANCH   6  19
BRANCH   9  26
ATOM     26  N   UNL     1     -48.220  28.182  23.535  1.00  0.00    -0.374 N 
BRANCH  26  27
ATOM     27  C   UNL     1     -49.618  28.319  23.949  1.00  0.00     0.006 C 
ATOM     28  H   UNL     1     -50.147  27.360  23.948  1.00  0.00     0.046 H 
ATOM     29  H   UNL     1     -49.693  28.767  24.947  1.00  0.00     0.046 H 
ATOM     30  H   UNL     1     -50.144  28.994  23.267  1.00  0.00     0.046 H 
ENDBRANCH  26  27
BRANCH  26  31
ATOM     31  C   UNL     1     -47.380  27.352  24.416  1.00  0.00     0.020 C 
ATOM     32  H   UNL     1     -46.651  27.972  24.953  1.00  0.00     0.050 H 
ATOM     33  H   UNL     1     -46.813  26.617  23.830  1.00  0.00     0.050 H 
BRANCH  31  34
ATOM     34  C   UNL     1     -48.245  26.581  25.371  1.00  0.00    -0.024 C 
ATOM     35  C   UNL     1     -47.680  25.392  26.108  1.00  0.00    -0.048 C 
ATOM     36  C   UNL     1     -48.022  26.645  26.863  1.00  0.00    -0.048 C 
ATOM     37  H   UNL     1     -49.263  26.491  25.007  1.00  0.00     0.032 H 
ATOM     38  H   UNL     1     -48.320  24.528  26.241  1.00  0.00     0.027 H 
ATOM     39  H   UNL     1     -46.631  25.148  25.978  1.00  0.00     0.027 H 
ATOM     40  H   UNL     1     -48.897  26.631  27.503  1.00  0.00     0.027 H 
ATOM     41  H   UNL     1     -47.204  27.247  27.242  1.00  0.00     0.027 H 
ENDBRANCH  31  34
ENDBRANCH  26  31
ENDBRANCH   9  26
ENDBRANCH   4   5
ENDBRANCH   1   4
BRANCH   1  42
ATOM     42  C   UNL     1     -47.151  35.923  27.255  1.00  0.00     0.010 A 
ATOM     43  C   UNL     1     -46.413  35.590  28.382  1.00  0.00     0.034 A 
ATOM     44  C   UNL     1     -47.033  37.233  26.766  1.00  0.00    -0.028 A 
ATOM     45  N   UNL     1     -45.579  36.442  29.014  1.00  0.00    -0.262 NA
ATOM     46  H   UNL     1     -46.468  34.600  28.826  1.00  0.00     0.084 H 
ATOM     47  C   UNL     1     -46.176  38.148  27.384  1.00  0.00     0.066 A 
ATOM     48  H   UNL     1     -47.606  37.492  25.880  1.00  0.00     0.065 H 
ATOM     49  C   UNL     1     -45.477  37.693  28.500  1.00  0.00     0.051 A 
ATOM     50  H   UNL     1     -44.802  38.318  29.073  1.00  0.00     0.086 H 
BRANCH  47  51
ATOM     51  N   UNL     1     -46.008  39.490  26.910  1.00  0.00    -0.299 N 
ATOM     52  C   UNL     1     -44.811  40.028  26.466  1.00  0.00     0.021 A 
ATOM     53  C   UNL     1     -46.976  40.490  26.797  1.00  0.00     0.150 A 
ATOM     54  C   UNL     1     -45.010  41.332  26.061  1.00  0.00     0.033 A 
ATOM     55  H   UNL     1     -43.908  39.438  26.421  1.00  0.00     0.083 H 
ATOM     56  C   UNL     1     -46.378  41.645  26.289  1.00  0.00     0.071 A 
ATOM     57  N   UNL     1     -48.274  40.384  27.146  1.00  0.00    -0.218 NA
ATOM     58  C   UNL     1     -47.211  42.771  26.140  1.00  0.00     0.137 A 
ATOM     59  C   UNL     1     -48.968  41.509  26.933  1.00  0.00     0.120 A 
ATOM     60  N   UNL     1     -48.517  42.673  26.450  1.00  0.00    -0.219 NA
ATOM     61  H   UNL     1     -50.024  41.475  27.184  1.00  0.00     0.106 H 
BRANCH  54  62
ATOM     62  C   UNL     1     -43.991  42.215  25.484  1.00  0.00     0.095 A 
ATOM     63  C   UNL     1     -42.815  42.623  26.153  1.00  0.00    -0.016 A 
ATOM     64  N   UNL     1     -44.051  42.711  24.240  1.00  0.00    -0.173 NA
ATOM     65  C   UNL     1     -42.148  43.419  25.249  1.00  0.00     0.025 A 
ATOM     66  H   UNL     1     -42.495  42.382  27.155  1.00  0.00     0.066 H 
ATOM     67  N   UNL     1     -42.925  43.441  24.130  1.00  0.00    -0.275 N 
ATOM     68  H   UNL     1     -41.212  43.956  25.313  1.00  0.00     0.084 H 
BRANCH  67  69
ATOM     69  C   UNL     1     -42.655  44.147  22.900  1.00  0.00     0.030 C 
ATOM     70  H   UNL     1     -43.526  44.757  22.654  1.00  0.00     0.048 H 
ATOM     71  H   UNL     1     -41.777  44.785  23.032  1.00  0.00     0.048 H 
ATOM     72  H   UNL     1     -42.466  43.410  22.115  1.00  0.00     0.048 H 
ENDBRANCH  67  69
ENDBRANCH  54  62
BRANCH  58  73
ATOM     73  N   UNL     1     -46.775  44.007  25.686  1.00  0.00    -0.383 N 
ATOM     74  H   UNL     1     -47.144  44.238  24.760  1.00  0.00     0.158 HD
ATOM     75  H   UNL     1     -46.862  44.715  26.401  1.00  0.00     0.158 HD
ENDBRANCH  58  73
ENDBRANCH  47  51
ENDBRANCH   1  42
TORSDOF 13
ENDMDL
MODEL 4
REMARK VINA RESULT:      -9.4      1.150      3.039
REMARK SMILES CCc1cc(N(C)CC2CC2)c2ccc(OCc3cncc(-n4cc(-c5ccn(C)n5)c5c(N)ncnc54)c3)cc2n1
REMARK SMILES IDX 17 1 16 4 15 5 3 6 4 7 42 8 5 9 41 11 12 12 40 13 13 14
REMARK SMILES IDX 14 16 2 19 1 22 6 26 7 27 8 31 9 34 10 35 11 36 18 42 19 43
REMARK SMILES IDX 39 44 20 45 22 47 21 49 23 51 24 52 38 53 25 54 32 56 37 57
REMARK SMILES IDX 33 58 36 59 35 60 26 62 27 63 31 64 28 65 29 67 30 69 34 73
REMARK H PARENT 17 2 17 3 4 10 40 15 13 17 14 18 2 20 2 21 1 23 1 24 1 25 7 28
REMARK H PARENT 7 29 7 30 8 32 8 33 9 37 10 38 10 39 11 40 11 41 19 46 39 48
REMARK H PARENT 21 50 24 55 36 61 27 66 28 68 30 70 30 71 30 72 34 74 34 75
REMARK Flexibility Score: inf
ROOT
ATOM      1  C   UNL     1     -46.262  34.714  28.025  1.00  0.00     0.115 C 
ATOM      2  H   UNL     1     -45.361  34.112  27.854  1.00  0.00     0.076 H 
ATOM      3  H   UNL     1     -46.915  34.102  28.658  1.00  0.00     0.076 H 
ENDROOT
BRANCH   1   4
ATOM      4  O   UNL     1     -46.970  34.931  26.801  1.00  0.00    -0.489 OA
BRANCH   4   5
ATOM      5  C   UNL     1     -47.291  33.855  26.024  1.00  0.00     0.122 A 
ATOM      6  C   UNL     1     -50.288  30.815  23.932  1.00  0.00     0.043 A 
ATOM      7  C   UNL     1     -49.263  30.075  23.357  1.00  0.00    -0.016 A 
ATOM      8  N   UNL     1     -50.061  31.900  24.704  1.00  0.00    -0.253 NA
ATOM      9  C   UNL     1     -47.936  30.456  23.581  1.00  0.00     0.048 A 
ATOM     10  H   UNL     1     -49.500  29.206  22.755  1.00  0.00     0.066 H 
ATOM     11  C   UNL     1     -48.792  32.275  24.935  1.00  0.00     0.076 A 
ATOM     12  C   UNL     1     -47.685  31.588  24.397  1.00  0.00     0.024 A 
ATOM     13  C   UNL     1     -48.576  33.390  25.739  1.00  0.00     0.007 A 
ATOM     14  C   UNL     1     -46.388  32.060  24.686  1.00  0.00    -0.047 A 
ATOM     15  H   UNL     1     -49.457  33.874  26.142  1.00  0.00     0.069 H 
ATOM     16  C   UNL     1     -46.197  33.181  25.493  1.00  0.00    -0.019 A 
ATOM     17  H   UNL     1     -45.519  31.553  24.273  1.00  0.00     0.063 H 
ATOM     18  H   UNL     1     -45.188  33.526  25.705  1.00  0.00     0.066 H 
BRANCH   6  19
ATOM     19  C   UNL     1     -51.727  30.441  23.692  1.00  0.00    -0.013 C 
ATOM     20  H   UNL     1     -52.008  29.599  24.337  1.00  0.00     0.033 H 
ATOM     21  H   UNL     1     -52.370  31.282  23.978  1.00  0.00     0.033 H 
BRANCH  19  22
ATOM     22  C   UNL     1     -51.977  30.089  22.233  1.00  0.00    -0.060 C 
ATOM     23  H   UNL     1     -51.937  30.981  21.599  1.00  0.00     0.023 H 
ATOM     24  H   UNL     1     -52.965  29.633  22.118  1.00  0.00     0.023 H 
ATOM     25  H   UNL     1     -51.231  29.379  21.862  1.00  0.00     0.023 H 
ENDBRANCH  19  22
ENDBRANCH   6  19
BRANCH   9  26
ATOM     26  N   UNL     1     -46.845  29.714  23.044  1.00  0.00    -0.374 N 
BRANCH  26  27
ATOM     27  C   UNL     1     -46.404  30.182  21.728  1.00  0.00     0.006 C 
ATOM     28  H   UNL     1     -46.020  31.208  21.761  1.00  0.00     0.046 H 
ATOM     29  H   UNL     1     -45.632  29.525  21.313  1.00  0.00     0.046 H 
ATOM     30  H   UNL     1     -47.243  30.159  21.025  1.00  0.00     0.046 H 
ENDBRANCH  26  27
BRANCH  26  31
ATOM     31  C   UNL     1     -47.115  28.268  23.142  1.00  0.00     0.020 C 
ATOM     32  H   UNL     1     -46.617  27.726  22.327  1.00  0.00     0.050 H 
ATOM     33  H   UNL     1     -48.191  28.069  23.057  1.00  0.00     0.050 H 
BRANCH  31  34
ATOM     34  C   UNL     1     -46.675  27.755  24.483  1.00  0.00    -0.024 C 
ATOM     35  C   UNL     1     -47.522  26.746  25.218  1.00  0.00    -0.048 C 
ATOM     36  C   UNL     1     -46.187  26.337  24.662  1.00  0.00    -0.048 C 
ATOM     37  H   UNL     1     -46.217  28.536  25.081  1.00  0.00     0.032 H 
ATOM     38  H   UNL     1     -47.615  26.851  26.293  1.00  0.00     0.027 H 
ATOM     39  H   UNL     1     -48.413  26.361  24.734  1.00  0.00     0.027 H 
ATOM     40  H   UNL     1     -45.375  26.170  25.361  1.00  0.00     0.027 H 
ATOM     41  H   UNL     1     -46.177  25.677  23.803  1.00  0.00     0.027 H 
ENDBRANCH  31  34
ENDBRANCH  26  31
ENDBRANCH   9  26
ENDBRANCH   4   5
ENDBRANCH   1   4
BRANCH   1  42
ATOM     42  C   UNL     1     -45.971  35.986  28.779  1.00  0.00     0.010 A 
ATOM     43  C   UNL     1     -46.253  36.074  30.135  1.00  0.00     0.034 A 
ATOM     44  C   UNL     1     -45.465  37.132  28.146  1.00  0.00    -0.028 A 
ATOM     45  N   UNL     1     -46.047  37.182  30.876  1.00  0.00    -0.262 NA
ATOM     46  H   UNL     1     -46.663  35.232  30.686  1.00  0.00     0.084 H 
ATOM     47  C   UNL     1     -45.230  38.301  28.875  1.00  0.00     0.066 A 
ATOM     48  H   UNL     1     -45.239  37.062  27.086  1.00  0.00     0.065 H 
ATOM     49  C   UNL     1     -45.539  38.263  30.233  1.00  0.00     0.051 A 
ATOM     50  H   UNL     1     -45.419  39.114  30.894  1.00  0.00     0.086 H 
BRANCH  47  51
ATOM     51  N   UNL     1     -44.697  39.489  28.278  1.00  0.00    -0.299 N 
ATOM     52  C   UNL     1     -45.216  40.112  27.154  1.00  0.00     0.021 A 
ATOM     53  C   UNL     1     -43.592  40.238  28.690  1.00  0.00     0.150 A 
ATOM     54  C   UNL     1     -44.477  41.240  26.865  1.00  0.00     0.033 A 
ATOM     55  H   UNL     1     -46.104  39.742  26.662  1.00  0.00     0.083 H 
ATOM     56  C   UNL     1     -43.426  41.318  27.820  1.00  0.00     0.071 A 
ATOM     57  N   UNL     1     -42.788  39.961  29.736  1.00  0.00    -0.218 NA
ATOM     58  C   UNL     1     -42.330  42.166  28.072  1.00  0.00     0.137 A 
ATOM     59  C   UNL     1     -41.801  40.851  29.889  1.00  0.00     0.120 A 
ATOM     60  N   UNL     1     -41.538  41.924  29.133  1.00  0.00    -0.219 NA
ATOM     61  H   UNL     1     -41.131  40.683  30.726  1.00  0.00     0.106 H 
BRANCH  54  62
ATOM     62  C   UNL     1     -44.748  42.188  25.779  1.00  0.00     0.095 A 
ATOM     63  C   UNL     1     -44.034  42.233  24.560  1.00  0.00    -0.016 A 
ATOM     64  N   UNL     1     -45.729  43.100  25.811  1.00  0.00    -0.173 NA
ATOM     65  C   UNL     1     -44.625  43.244  23.837  1.00  0.00     0.025 A 
ATOM     66  H   UNL     1     -43.199  41.623  24.248  1.00  0.00     0.066 H 
ATOM     67  N   UNL     1     -45.625  43.729  24.625  1.00  0.00    -0.275 N 
ATOM     68  H   UNL     1     -44.417  43.645  22.855  1.00  0.00     0.084 H 
BRANCH  67  69
ATOM     69  C   UNL     1     -46.534  44.805  24.310  1.00  0.00     0.030 C 
ATOM     70  H   UNL     1     -46.904  44.656  23.294  1.00  0.00     0.048 H 
ATOM     71  H   UNL     1     -47.368  44.796  25.017  1.00  0.00     0.048 H 
ATOM     72  H   UNL     1     -45.989  45.749  24.388  1.00  0.00     0.048 H 
ENDBRANCH  67  69
ENDBRANCH  54  62
BRANCH  58  73
ATOM     73  N   UNL     1     -41.997  43.260  27.288  1.00  0.00    -0.383 N 
ATOM     74  H   UNL     1     -41.033  43.218  26.944  1.00  0.00     0.158 HD
ATOM     75  H   UNL     1     -42.715  43.460  26.607  1.00  0.00     0.158 HD
ENDBRANCH  58  73
ENDBRANCH  47  51
ENDBRANCH   1  42
TORSDOF 13
ENDMDL
MODEL 5
REMARK VINA RESULT:      -9.3      2.386     12.242
REMARK SMILES CCc1cc(N(C)CC2CC2)c2ccc(OCc3cncc(-n4cc(-c5ccn(C)n5)c5c(N)ncnc54)c3)cc2n1
REMARK SMILES IDX 17 1 16 4 15 5 3 6 4 7 42 8 5 9 41 11 12 12 40 13 13 14
REMARK SMILES IDX 14 16 2 19 1 22 6 26 7 27 8 31 9 34 10 35 11 36 18 42 19 43
REMARK SMILES IDX 39 44 20 45 22 47 21 49 23 51 24 52 38 53 25 54 32 56 37 57
REMARK SMILES IDX 33 58 36 59 35 60 26 62 27 63 31 64 28 65 29 67 30 69 34 73
REMARK H PARENT 17 2 17 3 4 10 40 15 13 17 14 18 2 20 2 21 1 23 1 24 1 25 7 28
REMARK H PARENT 7 29 7 30 8 32 8 33 9 37 10 38 10 39 11 40 11 41 19 46 39 48
REMARK H PARENT 21 50 24 55 36 61 27 66 28 68 30 70 30 71 30 72 34 74 34 75
REMARK Flexibility Score: inf
ROOT
ATOM      1  C   UNL     1     -46.431  35.734  27.343  1.00  0.00     0.115 C 
ATOM      2  H   UNL     1     -45.714  35.226  28.000  1.00  0.00     0.076 H 
ATOM      3  H   UNL     1     -45.864  36.024  26.450  1.00  0.00     0.076 H 
ENDROOT
BRANCH   1   4
ATOM      4  O   UNL     1     -46.898  36.947  27.938  1.00  0.00    -0.489 OA
BRANCH   4   5
ATOM      5  C   UNL     1     -46.279  38.122  27.616  1.00  0.00     0.122 A 
ATOM      6  C   UNL     1     -42.997  41.522  28.131  1.00  0.00     0.043 A 
ATOM      7  C   UNL     1     -43.498  42.277  27.079  1.00  0.00    -0.016 A 
ATOM      8  N   UNL     1     -43.540  40.344  28.508  1.00  0.00    -0.253 NA
ATOM      9  C   UNL     1     -44.613  41.812  26.374  1.00  0.00     0.048 A 
ATOM     10  H   UNL     1     -43.031  43.221  26.825  1.00  0.00     0.066 H 
ATOM     11  C   UNL     1     -44.615  39.886  27.846  1.00  0.00     0.076 A 
ATOM     12  C   UNL     1     -45.197  40.581  26.766  1.00  0.00     0.024 A 
ATOM     13  C   UNL     1     -45.168  38.676  28.253  1.00  0.00     0.007 A 
ATOM     14  C   UNL     1     -46.321  40.018  26.124  1.00  0.00    -0.047 A 
ATOM     15  H   UNL     1     -44.695  38.188  29.098  1.00  0.00     0.069 H 
ATOM     16  C   UNL     1     -46.854  38.803  26.549  1.00  0.00    -0.019 A 
ATOM     17  H   UNL     1     -46.779  40.531  25.281  1.00  0.00     0.063 H 
ATOM     18  H   UNL     1     -47.722  38.389  26.041  1.00  0.00     0.066 H 
BRANCH   6  19
ATOM     19  C   UNL     1     -41.785  41.988  28.895  1.00  0.00    -0.013 C 
ATOM     20  H   UNL     1     -40.920  42.047  28.224  1.00  0.00     0.033 H 
ATOM     21  H   UNL     1     -41.962  43.004  29.266  1.00  0.00     0.033 H 
BRANCH  19  22
ATOM     22  C   UNL     1     -41.477  41.069  30.067  1.00  0.00    -0.060 C 
ATOM     23  H   UNL     1     -40.440  41.187  30.400  1.00  0.00     0.023 H 
ATOM     24  H   UNL     1     -41.626  40.024  29.779  1.00  0.00     0.023 H 
ATOM     25  H   UNL     1     -42.130  41.282  30.921  1.00  0.00     0.023 H 
ENDBRANCH  19  22
ENDBRANCH   6  19
BRANCH   9  26
ATOM     26  N   UNL     1     -45.189  42.561  25.308  1.00  0.00    -0.374 N 
BRANCH  26  27
ATOM     27  C   UNL     1     -44.299  42.730  24.157  1.00  0.00     0.006 C 
ATOM     28  H   UNL     1     -44.207  43.779  23.854  1.00  0.00     0.046 H 
ATOM     29  H   UNL     1     -43.300  42.330  24.367  1.00  0.00     0.046 H 
ATOM     30  H   UNL     1     -44.685  42.165  23.302  1.00  0.00     0.046 H 
ENDBRANCH  26  27
BRANCH  26  31
ATOM     31  C   UNL     1     -45.793  43.802  25.826  1.00  0.00     0.020 C 
ATOM     32  H   UNL     1     -45.753  44.596  25.069  1.00  0.00     0.050 H 
ATOM     33  H   UNL     1     -45.243  44.162  26.705  1.00  0.00     0.050 H 
BRANCH  31  34
ATOM     34  C   UNL     1     -47.204  43.540  26.265  1.00  0.00    -0.024 C 
ATOM     35  C   UNL     1     -47.971  44.603  27.013  1.00  0.00    -0.048 C 
ATOM     36  C   UNL     1     -48.374  44.238  25.612  1.00  0.00    -0.048 C 
ATOM     37  H   UNL     1     -47.337  42.517  26.599  1.00  0.00     0.032 H 
ATOM     38  H   UNL     1     -48.612  44.286  27.826  1.00  0.00     0.027 H 
ATOM     39  H   UNL     1     -47.503  45.569  27.170  1.00  0.00     0.027 H 
ATOM     40  H   UNL     1     -49.287  43.668  25.478  1.00  0.00     0.027 H 
ATOM     41  H   UNL     1     -48.179  44.956  24.825  1.00  0.00     0.027 H 
ENDBRANCH  31  34
ENDBRANCH  26  31
ENDBRANCH   9  26
ENDBRANCH   4   5
ENDBRANCH   1   4
BRANCH   1  42
ATOM     42  C   UNL     1     -47.544  34.825  26.890  1.00  0.00     0.010 A 
ATOM     43  C   UNL     1     -48.866  35.237  26.988  1.00  0.00     0.034 A 
ATOM     44  C   UNL     1     -47.303  33.529  26.411  1.00  0.00    -0.028 A 
ATOM     45  N   UNL     1     -49.920  34.475  26.629  1.00  0.00    -0.262 NA
ATOM     46  H   UNL     1     -49.128  36.221  27.367  1.00  0.00     0.084 H 
ATOM     47  C   UNL     1     -48.364  32.706  26.021  1.00  0.00     0.066 A 
ATOM     48  H   UNL     1     -46.269  33.208  26.329  1.00  0.00     0.065 H 
ATOM     49  C   UNL     1     -49.646  33.236  26.152  1.00  0.00     0.051 A 
ATOM     50  H   UNL     1     -50.545  32.684  25.903  1.00  0.00     0.086 H 
BRANCH  47  51
ATOM     51  N   UNL     1     -48.166  31.382  25.508  1.00  0.00    -0.299 N 
ATOM     52  C   UNL     1     -48.535  30.218  26.161  1.00  0.00     0.021 A 
ATOM     53  C   UNL     1     -47.591  31.008  24.292  1.00  0.00     0.150 A 
ATOM     54  C   UNL     1     -48.222  29.126  25.377  1.00  0.00     0.033 A 
ATOM     55  H   UNL     1     -49.038  30.239  27.116  1.00  0.00     0.083 H 
ATOM     56  C   UNL     1     -47.599  29.616  24.196  1.00  0.00     0.071 A 
ATOM     57  N   UNL     1     -47.078  31.842  23.365  1.00  0.00    -0.218 NA
ATOM     58  C   UNL     1     -47.022  29.062  23.036  1.00  0.00     0.137 A 
ATOM     59  C   UNL     1     -46.585  31.201  22.299  1.00  0.00     0.120 A 
ATOM     60  N   UNL     1     -46.537  29.880  22.084  1.00  0.00    -0.219 NA
ATOM     61  H   UNL     1     -46.171  31.826  21.513  1.00  0.00     0.106 H 
BRANCH  54  62
ATOM     62  C   UNL     1     -48.504  27.725  25.705  1.00  0.00     0.095 A 
ATOM     63  C   UNL     1     -49.793  27.147  25.704  1.00  0.00    -0.016 A 
ATOM     64  N   UNL     1     -47.558  26.827  26.016  1.00  0.00    -0.173 NA
ATOM     65  C   UNL     1     -49.594  25.829  26.047  1.00  0.00     0.025 A 
ATOM     66  H   UNL     1     -50.741  27.620  25.491  1.00  0.00     0.066 H 
ATOM     67  N   UNL     1     -48.250  25.690  26.224  1.00  0.00    -0.275 N 
ATOM     68  H   UNL     1     -50.281  25.005  26.177  1.00  0.00     0.084 H 
BRANCH  67  69
ATOM     69  C   UNL     1     -47.543  24.488  26.598  1.00  0.00     0.030 C 
ATOM     70  H   UNL     1     -46.535  24.765  26.913  1.00  0.00     0.048 H 
ATOM     71  H   UNL     1     -48.070  23.997  27.420  1.00  0.00     0.048 H 
ATOM     72  H   UNL     1     -47.508  23.826  25.729  1.00  0.00     0.048 H 
ENDBRANCH  67  69
ENDBRANCH  54  62
BRANCH  58  73
ATOM     73  N   UNL     1     -46.912  27.700  22.796  1.00  0.00    -0.383 N 
ATOM     74  H   UNL     1     -45.977  27.433  22.477  1.00  0.00     0.158 HD
ATOM     75  H   UNL     1     -47.309  27.158  23.550  1.00  0.00     0.158 HD
ENDBRANCH  58  73
ENDBRANCH  47  51
ENDBRANCH   1  42
TORSDOF 13
ENDMDL
MODEL 6
REMARK VINA RESULT:      -8.8      1.679      2.667
REMARK SMILES CCc1cc(N(C)CC2CC2)c2ccc(OCc3cncc(-n4cc(-c5ccn(C)n5)c5c(N)ncnc54)c3)cc2n1
REMARK SMILES IDX 17 1 16 4 15 5 3 6 4 7 42 8 5 9 41 11 12 12 40 13 13 14
REMARK SMILES IDX 14 16 2 19 1 22 6 26 7 27 8 31 9 34 10 35 11 36 18 42 19 43
REMARK SMILES IDX 39 44 20 45 22 47 21 49 23 51 24 52 38 53 25 54 32 56 37 57
REMARK SMILES IDX 33 58 36 59 35 60 26 62 27 63 31 64 28 65 29 67 30 69 34 73
REMARK H PARENT 17 2 17 3 4 10 40 15 13 17 14 18 2 20 2 21 1 23 1 24 1 25 7 28
REMARK H PARENT 7 29 7 30 8 32 8 33 9 37 10 38 10 39 11 40 11 41 19 46 39 48
REMARK H PARENT 21 50 24 55 36 61 27 66 28 68 30 70 30 71 30 72 34 74 34 75
REMARK Flexibility Score: inf
ROOT
ATOM      1  C   UNL     1     -46.206  34.587  27.295  1.00  0.00     0.115 C 
ATOM      2  H   UNL     1     -45.592  34.575  26.385  1.00  0.00     0.076 H 
ATOM      3  H   UNL     1     -45.770  33.832  27.960  1.00  0.00     0.076 H 
ENDROOT
BRANCH   1   4
ATOM      4  O   UNL     1     -47.541  34.156  27.015  1.00  0.00    -0.489 OA
BRANCH   4   5
ATOM      5  C   UNL     1     -47.739  33.197  26.063  1.00  0.00     0.122 A 
ATOM      6  C   UNL     1     -46.358  30.192  22.647  1.00  0.00     0.043 A 
ATOM      7  C   UNL     1     -47.648  29.729  22.422  1.00  0.00    -0.016 A 
ATOM      8  N   UNL     1     -46.071  31.129  23.576  1.00  0.00    -0.253 NA
ATOM      9  C   UNL     1     -48.703  30.248  23.179  1.00  0.00     0.048 A 
ATOM     10  H   UNL     1     -47.825  28.983  21.656  1.00  0.00     0.066 H 
ATOM     11  C   UNL     1     -47.074  31.644  24.307  1.00  0.00     0.076 A 
ATOM     12  C   UNL     1     -48.415  31.239  24.152  1.00  0.00     0.024 A 
ATOM     13  C   UNL     1     -46.762  32.615  25.254  1.00  0.00     0.007 A 
ATOM     14  C   UNL     1     -49.401  31.829  24.971  1.00  0.00    -0.047 A 
ATOM     15  H   UNL     1     -45.720  32.905  25.325  1.00  0.00     0.069 H 
ATOM     16  C   UNL     1     -49.063  32.798  25.914  1.00  0.00    -0.019 A 
ATOM     17  H   UNL     1     -50.441  31.523  24.876  1.00  0.00     0.063 H 
ATOM     18  H   UNL     1     -49.839  33.240  26.533  1.00  0.00     0.066 H 
BRANCH   6  19
ATOM     19  C   UNL     1     -45.200  29.637  21.861  1.00  0.00    -0.013 C 
ATOM     20  H   UNL     1     -45.532  29.353  20.855  1.00  0.00     0.033 H 
ATOM     21  H   UNL     1     -44.445  30.421  21.730  1.00  0.00     0.033 H 
BRANCH  19  22
ATOM     22  C   UNL     1     -44.570  28.443  22.562  1.00  0.00    -0.060 C 
ATOM     23  H   UNL     1     -45.027  27.504  22.232  1.00  0.00     0.023 H 
ATOM     24  H   UNL     1     -44.706  28.524  23.645  1.00  0.00     0.023 H 
ATOM     25  H   UNL     1     -43.496  28.384  22.358  1.00  0.00     0.023 H 
ENDBRANCH  19  22
ENDBRANCH   6  19
BRANCH   9  26
ATOM     26  N   UNL     1     -50.049  29.834  22.967  1.00  0.00    -0.374 N 
BRANCH  26  27
ATOM     27  C   UNL     1     -50.608  29.054  24.075  1.00  0.00     0.006 C 
ATOM     28  H   UNL     1     -51.408  28.383  23.745  1.00  0.00     0.046 H 
ATOM     29  H   UNL     1     -49.831  28.465  24.575  1.00  0.00     0.046 H 
ATOM     30  H   UNL     1     -51.023  29.727  24.831  1.00  0.00     0.046 H 
ENDBRANCH  26  27
BRANCH  26  31
ATOM     31  C   UNL     1     -50.192  29.226  21.632  1.00  0.00     0.020 C 
ATOM     32  H   UNL     1     -50.538  28.188  21.715  1.00  0.00     0.050 H 
ATOM     33  H   UNL     1     -49.226  29.207  21.110  1.00  0.00     0.050 H 
BRANCH  31  34
ATOM     34  C   UNL     1     -51.130  30.045  20.794  1.00  0.00    -0.024 C 
ATOM     35  C   UNL     1     -51.412  31.481  21.165  1.00  0.00    -0.048 C 
ATOM     36  C   UNL     1     -50.628  31.171  19.922  1.00  0.00    -0.048 C 
ATOM     37  H   UNL     1     -51.971  29.458  20.442  1.00  0.00     0.032 H 
ATOM     38  H   UNL     1     -52.427  31.843  21.049  1.00  0.00     0.027 H 
ATOM     39  H   UNL     1     -50.882  31.917  22.005  1.00  0.00     0.027 H 
ATOM     40  H   UNL     1     -51.113  31.319  18.964  1.00  0.00     0.027 H 
ATOM     41  H   UNL     1     -49.568  31.397  19.922  1.00  0.00     0.027 H 
ENDBRANCH  31  34
ENDBRANCH  26  31
ENDBRANCH   9  26
ENDBRANCH   4   5
ENDBRANCH   1   4
BRANCH   1  42
ATOM     42  C   UNL     1     -46.145  35.908  28.016  1.00  0.00     0.010 A 
ATOM     43  C   UNL     1     -46.256  35.955  29.398  1.00  0.00     0.034 A 
ATOM     44  C   UNL     1     -46.031  37.128  27.332  1.00  0.00    -0.028 A 
ATOM     45  N   UNL     1     -46.237  37.097  30.116  1.00  0.00    -0.262 NA
ATOM     46  H   UNL     1     -46.365  35.051  29.991  1.00  0.00     0.084 H 
ATOM     47  C   UNL     1     -46.001  38.336  28.035  1.00  0.00     0.066 A 
ATOM     48  H   UNL     1     -45.939  37.092  26.251  1.00  0.00     0.065 H 
ATOM     49  C   UNL     1     -46.106  38.255  29.422  1.00  0.00     0.051 A 
ATOM     50  H   UNL     1     -46.116  39.125  30.069  1.00  0.00     0.086 H 
BRANCH  47  51
ATOM     51  N   UNL     1     -45.867  39.605  27.383  1.00  0.00    -0.299 N 
ATOM     52  C   UNL     1     -44.670  40.145  26.941  1.00  0.00     0.021 A 
ATOM     53  C   UNL     1     -46.873  40.520  27.066  1.00  0.00     0.150 A 
ATOM     54  C   UNL     1     -44.904  41.364  26.339  1.00  0.00     0.033 A 
ATOM     55  H   UNL     1     -43.738  39.609  27.038  1.00  0.00     0.083 H 
ATOM     56  C   UNL     1     -46.300  41.625  26.435  1.00  0.00     0.071 A 
ATOM     57  N   UNL     1     -48.186  40.388  27.345  1.00  0.00    -0.218 NA
ATOM     58  C   UNL     1     -47.174  42.668  26.072  1.00  0.00     0.137 A 
ATOM     59  C   UNL     1     -48.918  41.428  26.929  1.00  0.00     0.120 A 
ATOM     60  N   UNL     1     -48.492  42.537  26.311  1.00  0.00    -0.219 NA
ATOM     61  H   UNL     1     -49.985  41.367  27.116  1.00  0.00     0.106 H 
BRANCH  54  62
ATOM     62  C   UNL     1     -43.893  42.216  25.705  1.00  0.00     0.095 A 
ATOM     63  C   UNL     1     -42.700  42.643  26.332  1.00  0.00    -0.016 A 
ATOM     64  N   UNL     1     -43.977  42.662  24.444  1.00  0.00    -0.173 NA
ATOM     65  C   UNL     1     -42.048  43.396  25.382  1.00  0.00     0.025 A 
ATOM     66  H   UNL     1     -42.360  42.440  27.336  1.00  0.00     0.066 H 
ATOM     67  N   UNL     1     -42.849  43.379  24.279  1.00  0.00    -0.275 N 
ATOM     68  H   UNL     1     -41.107  43.928  25.404  1.00  0.00     0.084 H 
BRANCH  67  69
ATOM     69  C   UNL     1     -42.601  44.031  23.016  1.00  0.00     0.030 C 
ATOM     70  H   UNL     1     -41.735  43.559  22.549  1.00  0.00     0.048 H 
ATOM     71  H   UNL     1     -43.478  43.924  22.372  1.00  0.00     0.048 H 
ATOM     72  H   UNL     1     -42.406  45.090  23.208  1.00  0.00     0.048 H 
ENDBRANCH  67  69
ENDBRANCH  54  62
BRANCH  58  73
ATOM     73  N   UNL     1     -46.769  43.851  25.472  1.00  0.00    -0.383 N 
ATOM     74  H   UNL     1     -46.527  44.574  26.155  1.00  0.00     0.158 HD
ATOM     75  H   UNL     1     -46.104  43.681  24.732  1.00  0.00     0.158 HD
ENDBRANCH  58  73
ENDBRANCH  47  51
ENDBRANCH   1  42
TORSDOF 13
ENDMDL
MODEL 7
REMARK VINA RESULT:      -8.5      1.999      2.686
REMARK SMILES CCc1cc(N(C)CC2CC2)c2ccc(OCc3cncc(-n4cc(-c5ccn(C)n5)c5c(N)ncnc54)c3)cc2n1
REMARK SMILES IDX 17 1 16 4 15 5 3 6 4 7 42 8 5 9 41 11 12 12 40 13 13 14
REMARK SMILES IDX 14 16 2 19 1 22 6 26 7 27 8 31 9 34 10 35 11 36 18 42 19 43
REMARK SMILES IDX 39 44 20 45 22 47 21 49 23 51 24 52 38 53 25 54 32 56 37 57
REMARK SMILES IDX 33 58 36 59 35 60 26 62 27 63 31 64 28 65 29 67 30 69 34 73
REMARK H PARENT 17 2 17 3 4 10 40 15 13 17 14 18 2 20 2 21 1 23 1 24 1 25 7 28
REMARK H PARENT 7 29 7 30 8 32 8 33 9 37 10 38 10 39 11 40 11 41 19 46 39 48
REMARK H PARENT 21 50 24 55 36 61 27 66 28 68 30 70 30 71 30 72 34 74 34 75
REMARK Flexibility Score: inf
ROOT
ATOM      1  C   UNL     1     -48.731  34.801  27.178  1.00  0.00     0.115 C 
ATOM      2  H   UNL     1     -49.130  34.184  27.993  1.00  0.00     0.076 H 
ATOM      3  H   UNL     1     -49.413  34.657  26.332  1.00  0.00     0.076 H 
ENDROOT
BRANCH   1   4
ATOM      4  O   UNL     1     -47.452  34.321  26.754  1.00  0.00    -0.489 OA
BRANCH   4   5
ATOM      5  C   UNL     1     -47.396  33.250  25.908  1.00  0.00     0.122 A 
ATOM      6  C   UNL     1     -46.140  30.999  21.913  1.00  0.00     0.043 A 
ATOM      7  C   UNL     1     -46.767  29.818  22.287  1.00  0.00    -0.016 A 
ATOM      8  N   UNL     1     -46.136  32.102  22.694  1.00  0.00    -0.253 NA
ATOM      9  C   UNL     1     -47.429  29.755  23.517  1.00  0.00     0.048 A 
ATOM     10  H   UNL     1     -46.750  28.967  21.617  1.00  0.00     0.066 H 
ATOM     11  C   UNL     1     -46.773  32.060  23.876  1.00  0.00     0.076 A 
ATOM     12  C   UNL     1     -47.439  30.909  24.341  1.00  0.00     0.024 A 
ATOM     13  C   UNL     1     -46.767  33.208  24.663  1.00  0.00     0.007 A 
ATOM     14  C   UNL     1     -48.074  30.955  25.600  1.00  0.00    -0.047 A 
ATOM     15  H   UNL     1     -46.255  34.072  24.255  1.00  0.00     0.069 H 
ATOM     16  C   UNL     1     -48.052  32.115  26.372  1.00  0.00    -0.019 A 
ATOM     17  H   UNL     1     -48.585  30.074  25.984  1.00  0.00     0.063 H 
ATOM     18  H   UNL     1     -48.550  32.129  27.338  1.00  0.00     0.066 H 
BRANCH   6  19
ATOM     19  C   UNL     1     -45.402  31.091  20.604  1.00  0.00    -0.013 C 
ATOM     20  H   UNL     1     -44.418  31.550  20.760  1.00  0.00     0.033 H 
ATOM     21  H   UNL     1     -45.217  30.079  20.223  1.00  0.00     0.033 H 
BRANCH  19  22
ATOM     22  C   UNL     1     -46.191  31.882  19.572  1.00  0.00    -0.060 C 
ATOM     23  H   UNL     1     -45.689  32.825  19.328  1.00  0.00     0.023 H 
ATOM     24  H   UNL     1     -47.188  32.118  19.956  1.00  0.00     0.023 H 
ATOM     25  H   UNL     1     -46.310  31.315  18.643  1.00  0.00     0.023 H 
ENDBRANCH  19  22
ENDBRANCH   6  19
BRANCH   9  26
ATOM     26  N   UNL     1     -48.118  28.580  23.935  1.00  0.00    -0.374 N 
BRANCH  26  27
ATOM     27  C   UNL     1     -47.232  27.516  24.415  1.00  0.00     0.006 C 
ATOM     28  H   UNL     1     -46.751  26.976  23.592  1.00  0.00     0.046 H 
ATOM     29  H   UNL     1     -46.459  27.916  25.080  1.00  0.00     0.046 H 
ATOM     30  H   UNL     1     -47.805  26.793  25.004  1.00  0.00     0.046 H 
ENDBRANCH  26  27
BRANCH  26  31
ATOM     31  C   UNL     1     -49.097  28.172  22.912  1.00  0.00     0.020 C 
ATOM     32  H   UNL     1     -48.886  27.155  22.558  1.00  0.00     0.050 H 
ATOM     33  H   UNL     1     -49.047  28.838  22.040  1.00  0.00     0.050 H 
BRANCH  31  34
ATOM     34  C   UNL     1     -50.489  28.276  23.466  1.00  0.00    -0.024 C 
ATOM     35  C   UNL     1     -51.565  27.335  22.981  1.00  0.00    -0.048 C 
ATOM     36  C   UNL     1     -51.050  27.219  24.388  1.00  0.00    -0.048 C 
ATOM     37  H   UNL     1     -50.780  29.308  23.629  1.00  0.00     0.032 H 
ATOM     38  H   UNL     1     -52.560  27.738  22.836  1.00  0.00     0.027 H 
ATOM     39  H   UNL     1     -51.297  26.555  22.277  1.00  0.00     0.027 H 
ATOM     40  H   UNL     1     -51.695  27.548  25.195  1.00  0.00     0.027 H 
ATOM     41  H   UNL     1     -50.434  26.361  24.633  1.00  0.00     0.027 H 
ENDBRANCH  31  34
ENDBRANCH  26  31
ENDBRANCH   9  26
ENDBRANCH   4   5
ENDBRANCH   1   4
BRANCH   1  42
ATOM     42  C   UNL     1     -48.735  36.271  27.511  1.00  0.00     0.010 A 
ATOM     43  C   UNL     1     -49.914  36.896  27.892  1.00  0.00     0.034 A 
ATOM     44  C   UNL     1     -47.585  37.066  27.400  1.00  0.00    -0.028 A 
ATOM     45  N   UNL     1     -50.008  38.211  28.182  1.00  0.00    -0.262 NA
ATOM     46  H   UNL     1     -50.847  36.346  27.982  1.00  0.00     0.084 H 
ATOM     47  C   UNL     1     -47.634  38.432  27.696  1.00  0.00     0.066 A 
ATOM     48  H   UNL     1     -46.662  36.576  27.107  1.00  0.00     0.065 H 
ATOM     49  C   UNL     1     -48.871  38.943  28.082  1.00  0.00     0.051 A 
ATOM     50  H   UNL     1     -49.035  39.989  28.314  1.00  0.00     0.086 H 
BRANCH  47  51
ATOM     51  N   UNL     1     -46.482  39.280  27.616  1.00  0.00    -0.299 N 
ATOM     52  C   UNL     1     -46.286  40.260  26.656  1.00  0.00     0.021 A 
ATOM     53  C   UNL     1     -45.367  39.300  28.457  1.00  0.00     0.150 A 
ATOM     54  C   UNL     1     -45.088  40.903  26.886  1.00  0.00     0.033 A 
ATOM     55  H   UNL     1     -47.030  40.470  25.901  1.00  0.00     0.083 H 
ATOM     56  C   UNL     1     -44.482  40.285  28.015  1.00  0.00     0.071 A 
ATOM     57  N   UNL     1     -45.151  38.486  29.510  1.00  0.00    -0.218 NA
ATOM     58  C   UNL     1     -43.280  40.420  28.736  1.00  0.00     0.137 A 
ATOM     59  C   UNL     1     -43.990  38.728  30.130  1.00  0.00     0.120 A 
ATOM     60  N   UNL     1     -43.063  39.640  29.811  1.00  0.00    -0.219 NA
ATOM     61  H   UNL     1     -43.771  38.109  30.995  1.00  0.00     0.106 H 
BRANCH  54  62
ATOM     62  C   UNL     1     -44.556  42.029  26.111  1.00  0.00     0.095 A 
ATOM     63  C   UNL     1     -45.264  43.225  25.850  1.00  0.00    -0.016 A 
ATOM     64  N   UNL     1     -43.322  42.060  25.588  1.00  0.00    -0.173 NA
ATOM     65  C   UNL     1     -44.394  44.001  25.118  1.00  0.00     0.025 A 
ATOM     66  H   UNL     1     -46.268  43.488  26.145  1.00  0.00     0.066 H 
ATOM     67  N   UNL     1     -43.256  43.263  24.987  1.00  0.00    -0.275 N 
ATOM     68  H   UNL     1     -44.494  44.989  24.690  1.00  0.00     0.084 H 
BRANCH  67  69
ATOM     69  C   UNL     1     -42.050  43.644  24.293  1.00  0.00     0.030 C 
ATOM     70  H   UNL     1     -42.330  44.127  23.355  1.00  0.00     0.048 H 
ATOM     71  H   UNL     1     -41.477  44.338  24.914  1.00  0.00     0.048 H 
ATOM     72  H   UNL     1     -41.463  42.742  24.103  1.00  0.00     0.048 H 
ENDBRANCH  67  69
ENDBRANCH  54  62
BRANCH  58  73
ATOM     73  N   UNL     1     -42.275  41.320  28.412  1.00  0.00    -0.383 N 
ATOM     74  H   UNL     1     -42.560  41.980  27.683  1.00  0.00     0.158 HD
ATOM     75  H   UNL     1     -41.848  41.711  29.239  1.00  0.00     0.158 HD
ENDBRANCH  58  73
ENDBRANCH  47  51
ENDBRANCH   1  42
TORSDOF 13
ENDMDL
