MODEL 1
REMARK VINA RESULT:      -9.9      0.000      0.000
REMARK SMILES F[C@]12C[C@](CNCc3cc4cnc(Cn5cc(-c6cccn7cncc67)nn5)cc4[nH]3)(C1)C2
REMARK SMILES IDX 8 1 9 2 10 3 11 4 12 5 13 6 29 7 30 8 31 9 7 14 6 17 5 19
REMARK SMILES IDX 4 22 1 23 2 24 3 25 33 26 32 27 14 34 15 37 16 38 28 39
REMARK SMILES IDX 17 40 27 42 18 43 19 44 26 45 20 46 22 48 25 49 21 50 23 52
REMARK SMILES IDX 24 53
REMARK H PARENT 9 10 11 11 29 12 31 13 7 15 7 16 6 18 5 20 5 21 3 28 3 29
REMARK H PARENT 33 30 33 31 32 32 32 33 14 35 14 36 16 41 19 47 20 51 25 54
REMARK H PARENT 21 55 23 56
REMARK Flexibility Score: inf
ROOT
ATOM      1  C   UNL     1     -46.585  32.040  24.344  1.00  0.00     0.030 A 
ATOM      2  C   UNL     1     -47.868  32.443  24.655  1.00  0.00    -0.031 A 
ATOM      3  C   UNL     1     -47.794  33.327  25.768  1.00  0.00     0.018 A 
ATOM      4  C   UNL     1     -48.734  34.042  26.515  1.00  0.00     0.037 A 
ATOM      5  N   UNL     1     -48.337  34.831  27.548  1.00  0.00    -0.259 NA
ATOM      6  C   UNL     1     -47.020  34.910  27.879  1.00  0.00     0.064 A 
ATOM      7  C   UNL     1     -46.018  34.245  27.167  1.00  0.00    -0.014 A 
ATOM      8  C   UNL     1     -46.449  33.444  26.110  1.00  0.00     0.049 A 
ATOM      9  N   UNL     1     -45.739  32.654  25.239  1.00  0.00    -0.357 N 
ATOM     10  H   UNL     1     -48.769  32.133  24.142  1.00  0.00     0.065 H 
ATOM     11  H   UNL     1     -49.798  34.009  26.314  1.00  0.00     0.085 H 
ATOM     12  H   UNL     1     -44.967  34.327  27.416  1.00  0.00     0.067 H 
ATOM     13  H   UNL     1     -44.733  32.548  25.223  1.00  0.00     0.166 HD
ENDROOT
BRANCH   1  14
ATOM     14  C   UNL     1     -46.067  31.115  23.299  1.00  0.00     0.036 C 
ATOM     15  H   UNL     1     -45.048  31.418  23.042  1.00  0.00     0.049 H 
ATOM     16  H   UNL     1     -46.026  30.094  23.698  1.00  0.00     0.049 H 
BRANCH  14  17
ATOM     17  N   UNL     1     -46.953  31.171  22.134  1.00  0.00    -0.311 NA
ATOM     18  H   UNL     1     -47.639  31.904  22.321  1.00  0.00     0.123 HD
BRANCH  17  19
ATOM     19  C   UNL     1     -47.666  29.910  21.926  1.00  0.00     0.002 C 
ATOM     20  H   UNL     1     -47.858  29.475  22.914  1.00  0.00     0.043 H 
ATOM     21  H   UNL     1     -47.047  29.183  21.390  1.00  0.00     0.043 H 
BRANCH  19  22
ATOM     22  C   UNL     1     -48.967  30.131  21.244  1.00  0.00    -0.008 C 
ATOM     23  F   UNL     1     -51.788  30.837  19.747  1.00  0.00    -0.244 F 
ATOM     24  C   UNL     1     -50.646  30.550  20.352  1.00  0.00     0.112 C 
ATOM     25  C   UNL     1     -49.264  30.314  19.695  1.00  0.00    -0.012 C 
ATOM     26  C   UNL     1     -50.336  29.328  21.250  1.00  0.00    -0.012 C 
ATOM     27  C   UNL     1     -49.901  31.404  21.407  1.00  0.00    -0.012 C 
ATOM     28  H   UNL     1     -48.794  31.169  19.199  1.00  0.00     0.031 H 
ATOM     29  H   UNL     1     -49.156  29.425  19.065  1.00  0.00     0.031 H 
ATOM     30  H   UNL     1     -50.866  29.263  22.208  1.00  0.00     0.031 H 
ATOM     31  H   UNL     1     -50.344  28.347  20.765  1.00  0.00     0.031 H 
ATOM     32  H   UNL     1     -49.492  32.364  21.073  1.00  0.00     0.031 H 
ATOM     33  H   UNL     1     -50.388  31.538  22.378  1.00  0.00     0.031 H 
ENDBRANCH  19  22
ENDBRANCH  17  19
ENDBRANCH  14  17
ENDBRANCH   1  14
BRANCH   6  34
ATOM     34  C   UNL     1     -46.698  35.852  29.015  1.00  0.00     0.085 C 
ATOM     35  H   UNL     1     -47.556  35.908  29.693  1.00  0.00     0.058 H 
ATOM     36  H   UNL     1     -45.834  35.493  29.586  1.00  0.00     0.058 H 
BRANCH  34  37
ATOM     37  N   UNL     1     -46.382  37.201  28.580  1.00  0.00    -0.246 N 
ATOM     38  C   UNL     1     -45.142  37.751  28.403  1.00  0.00     0.054 A 
ATOM     39  N   UNL     1     -47.353  38.070  28.247  1.00  0.00    -0.066 NA
ATOM     40  C   UNL     1     -45.408  39.024  27.955  1.00  0.00     0.115 A 
ATOM     41  H   UNL     1     -44.232  37.214  28.623  1.00  0.00     0.086 H 
ATOM     42  N   UNL     1     -46.766  39.200  27.877  1.00  0.00    -0.130 NA
BRANCH  40  43
ATOM     43  C   UNL     1     -44.489  40.080  27.630  1.00  0.00     0.029 A 
ATOM     44  C   UNL     1     -44.613  40.735  26.444  1.00  0.00    -0.049 A 
ATOM     45  C   UNL     1     -43.418  40.517  28.493  1.00  0.00     0.074 A 
ATOM     46  C   UNL     1     -43.753  41.836  26.035  1.00  0.00    -0.045 A 
ATOM     47  H   UNL     1     -45.396  40.461  25.739  1.00  0.00     0.063 H 
ATOM     48  N   UNL     1     -42.621  41.577  28.079  1.00  0.00    -0.306 N 
ATOM     49  C   UNL     1     -42.883  40.139  29.708  1.00  0.00     0.053 A 
ATOM     50  C   UNL     1     -42.780  42.236  26.866  1.00  0.00     0.010 A 
ATOM     51  H   UNL     1     -43.923  42.306  25.073  1.00  0.00     0.064 H 
ATOM     52  C   UNL     1     -41.700  41.794  29.071  1.00  0.00     0.099 A 
ATOM     53  N   UNL     1     -41.833  40.946  30.067  1.00  0.00    -0.244 NA
ATOM     54  H   UNL     1     -43.192  39.327  30.351  1.00  0.00     0.086 H 
ATOM     55  H   UNL     1     -42.101  43.047  26.637  1.00  0.00     0.082 H 
ATOM     56  H   UNL     1     -40.958  42.579  29.009  1.00  0.00     0.105 H 
ENDBRANCH  40  43
ENDBRANCH  34  37
ENDBRANCH   6  34
TORSDOF 7
ENDMDL
MODEL 2
REMARK VINA RESULT:      -9.8      2.978      3.510
REMARK SMILES F[C@]12C[C@](CNCc3cc4cnc(Cn5cc(-c6cccn7cncc67)nn5)cc4[nH]3)(C1)C2
REMARK SMILES IDX 8 1 9 2 10 3 11 4 12 5 13 6 29 7 30 8 31 9 7 14 6 17 5 19
REMARK SMILES IDX 4 22 1 23 2 24 3 25 33 26 32 27 14 34 15 37 16 38 28 39
REMARK SMILES IDX 17 40 27 42 18 43 19 44 26 45 20 46 22 48 25 49 21 50 23 52
REMARK SMILES IDX 24 53
REMARK H PARENT 9 10 11 11 29 12 31 13 7 15 7 16 6 18 5 20 5 21 3 28 3 29
REMARK H PARENT 33 30 33 31 32 32 32 33 14 35 14 36 16 41 19 47 20 51 25 54
REMARK H PARENT 21 55 23 56
REMARK Flexibility Score: inf
ROOT
ATOM      1  C   UNL     1     -47.841  31.937  24.967  1.00  0.00     0.030 A 
ATOM      2  C   UNL     1     -46.597  32.103  25.542  1.00  0.00    -0.031 A 
ATOM      3  C   UNL     1     -46.637  33.275  26.348  1.00  0.00     0.018 A 
ATOM      4  C   UNL     1     -45.713  33.939  27.158  1.00  0.00     0.037 A 
ATOM      5  N   UNL     1     -46.067  35.068  27.826  1.00  0.00    -0.259 NA
ATOM      6  C   UNL     1     -47.322  35.576  27.689  1.00  0.00     0.064 A 
ATOM      7  C   UNL     1     -48.309  34.958  26.918  1.00  0.00    -0.014 A 
ATOM      8  C   UNL     1     -47.923  33.800  26.244  1.00  0.00     0.049 A 
ATOM      9  N   UNL     1     -48.630  32.977  25.401  1.00  0.00    -0.357 N 
ATOM     10  H   UNL     1     -45.743  31.454  25.397  1.00  0.00     0.065 H 
ATOM     11  H   UNL     1     -44.694  33.597  27.296  1.00  0.00     0.085 H 
ATOM     12  H   UNL     1     -49.315  35.350  26.828  1.00  0.00     0.067 H 
ATOM     13  H   UNL     1     -49.603  33.088  25.146  1.00  0.00     0.166 HD
ENDROOT
BRANCH   1  14
ATOM     14  C   UNL     1     -48.364  30.907  24.028  1.00  0.00     0.036 C 
ATOM     15  H   UNL     1     -49.458  30.943  24.050  1.00  0.00     0.049 H 
ATOM     16  H   UNL     1     -48.039  31.141  23.007  1.00  0.00     0.049 H 
BRANCH  14  17
ATOM     17  N   UNL     1     -47.862  29.594  24.435  1.00  0.00    -0.311 NA
ATOM     18  H   UNL     1     -47.773  29.036  23.583  1.00  0.00     0.123 HD
BRANCH  17  19
ATOM     19  C   UNL     1     -48.784  28.910  25.342  1.00  0.00     0.002 C 
ATOM     20  H   UNL     1     -49.767  28.893  24.859  1.00  0.00     0.043 H 
ATOM     21  H   UNL     1     -48.916  29.469  26.276  1.00  0.00     0.043 H 
BRANCH  19  22
ATOM     22  C   UNL     1     -48.354  27.511  25.598  1.00  0.00    -0.008 C 
ATOM     23  F   UNL     1     -47.511  24.445  26.359  1.00  0.00    -0.244 F 
ATOM     24  C   UNL     1     -47.852  25.685  26.050  1.00  0.00     0.112 C 
ATOM     25  C   UNL     1     -49.155  26.162  25.362  1.00  0.00    -0.012 C 
ATOM     26  C   UNL     1     -47.100  26.666  25.118  1.00  0.00    -0.012 C 
ATOM     27  C   UNL     1     -48.031  26.880  27.018  1.00  0.00    -0.012 C 
ATOM     28  H   UNL     1     -50.089  26.036  25.919  1.00  0.00     0.031 H 
ATOM     29  H   UNL     1     -49.312  25.857  24.322  1.00  0.00     0.031 H 
ATOM     30  H   UNL     1     -46.114  27.014  25.447  1.00  0.00     0.031 H 
ATOM     31  H   UNL     1     -47.053  26.398  24.057  1.00  0.00     0.031 H 
ATOM     32  H   UNL     1     -48.858  26.823  27.733  1.00  0.00     0.031 H 
ATOM     33  H   UNL     1     -47.136  27.248  27.529  1.00  0.00     0.031 H 
ENDBRANCH  19  22
ENDBRANCH  17  19
ENDBRANCH  14  17
ENDBRANCH   1  14
BRANCH   6  34
ATOM     34  C   UNL     1     -47.611  36.808  28.514  1.00  0.00     0.085 C 
ATOM     35  H   UNL     1     -48.690  36.994  28.521  1.00  0.00     0.058 H 
ATOM     36  H   UNL     1     -47.281  36.668  29.551  1.00  0.00     0.058 H 
BRANCH  34  37
ATOM     37  N   UNL     1     -46.952  38.004  28.022  1.00  0.00    -0.246 N 
ATOM     38  C   UNL     1     -45.674  38.419  28.280  1.00  0.00     0.054 A 
ATOM     39  N   UNL     1     -47.575  38.842  27.174  1.00  0.00    -0.066 NA
ATOM     40  C   UNL     1     -45.552  39.578  27.549  1.00  0.00     0.115 A 
ATOM     41  H   UNL     1     -45.014  37.884  28.944  1.00  0.00     0.086 H 
ATOM     42  N   UNL     1     -46.728  39.822  26.889  1.00  0.00    -0.130 NA
BRANCH  40  43
ATOM     43  C   UNL     1     -44.432  40.474  27.453  1.00  0.00     0.029 A 
ATOM     44  C   UNL     1     -44.298  41.265  26.355  1.00  0.00    -0.049 A 
ATOM     45  C   UNL     1     -43.412  40.607  28.466  1.00  0.00     0.074 A 
ATOM     46  C   UNL     1     -43.218  42.225  26.177  1.00  0.00    -0.045 A 
ATOM     47  H   UNL     1     -45.027  41.220  25.547  1.00  0.00     0.063 H 
ATOM     48  N   UNL     1     -42.400  41.539  28.271  1.00  0.00    -0.306 N 
ATOM     49  C   UNL     1     -43.099  40.006  29.669  1.00  0.00     0.053 A 
ATOM     50  C   UNL     1     -42.297  42.344  27.144  1.00  0.00     0.010 A 
ATOM     51  H   UNL     1     -43.188  42.820  25.272  1.00  0.00     0.064 H 
ATOM     52  C   UNL     1     -41.581  41.472  29.369  1.00  0.00     0.099 A 
ATOM     53  N   UNL     1     -41.976  40.560  30.230  1.00  0.00    -0.244 NA
ATOM     54  H   UNL     1     -43.619  39.200  30.169  1.00  0.00     0.086 H 
ATOM     55  H   UNL     1     -41.465  43.034  27.089  1.00  0.00     0.082 H 
ATOM     56  H   UNL     1     -40.713  42.107  29.481  1.00  0.00     0.105 H 
ENDBRANCH  40  43
ENDBRANCH  34  37
ENDBRANCH   6  34
TORSDOF 7
ENDMDL
MODEL 3
REMARK VINA RESULT:      -9.5      3.830     10.922
REMARK SMILES F[C@]12C[C@](CNCc3cc4cnc(Cn5cc(-c6cccn7cncc67)nn5)cc4[nH]3)(C1)C2
REMARK SMILES IDX 8 1 9 2 10 3 11 4 12 5 13 6 29 7 30 8 31 9 7 14 6 17 5 19
REMARK SMILES IDX 4 22 1 23 2 24 3 25 33 26 32 27 14 34 15 37 16 38 28 39
REMARK SMILES IDX 17 40 27 42 18 43 19 44 26 45 20 46 22 48 25 49 21 50 23 52
REMARK SMILES IDX 24 53
REMARK H PARENT 9 10 11 11 29 12 31 13 7 15 7 16 6 18 5 20 5 21 3 28 3 29
REMARK H PARENT 33 30 33 31 32 32 32 33 14 35 14 36 16 41 19 47 20 51 25 54
REMARK H PARENT 21 55 23 56
REMARK Flexibility Score: inf
ROOT
ATOM      1  C   UNL     1     -46.640  40.596  26.498  1.00  0.00     0.030 A 
ATOM      2  C   UNL     1     -47.816  40.277  27.147  1.00  0.00    -0.031 A 
ATOM      3  C   UNL     1     -47.775  38.893  27.477  1.00  0.00     0.018 A 
ATOM      4  C   UNL     1     -48.647  38.014  28.124  1.00  0.00     0.037 A 
ATOM      5  N   UNL     1     -48.308  36.710  28.296  1.00  0.00    -0.259 NA
ATOM      6  C   UNL     1     -47.123  36.243  27.816  1.00  0.00     0.064 A 
ATOM      7  C   UNL     1     -46.188  37.063  27.180  1.00  0.00    -0.014 A 
ATOM      8  C   UNL     1     -46.558  38.398  27.017  1.00  0.00     0.049 A 
ATOM      9  N   UNL     1     -45.892  39.444  26.425  1.00  0.00    -0.357 N 
ATOM     10  H   UNL     1     -48.626  40.963  27.360  1.00  0.00     0.065 H 
ATOM     11  H   UNL     1     -49.611  38.317  28.513  1.00  0.00     0.085 H 
ATOM     12  H   UNL     1     -45.235  36.697  26.819  1.00  0.00     0.067 H 
ATOM     13  H   UNL     1     -44.968  39.400  26.014  1.00  0.00     0.166 HD
ENDROOT
BRANCH   1  14
ATOM     14  C   UNL     1     -46.151  41.876  25.917  1.00  0.00     0.036 C 
ATOM     15  H   UNL     1     -46.892  42.235  25.197  1.00  0.00     0.049 H 
ATOM     16  H   UNL     1     -46.058  42.630  26.709  1.00  0.00     0.049 H 
BRANCH  14  17
ATOM     17  N   UNL     1     -44.853  41.645  25.281  1.00  0.00    -0.311 NA
ATOM     18  H   UNL     1     -44.536  40.723  25.587  1.00  0.00     0.123 HD
BRANCH  17  19
ATOM     19  C   UNL     1     -43.857  42.636  25.689  1.00  0.00     0.002 C 
ATOM     20  H   UNL     1     -44.395  43.559  25.935  1.00  0.00     0.043 H 
ATOM     21  H   UNL     1     -43.183  42.891  24.863  1.00  0.00     0.043 H 
BRANCH  19  22
ATOM     22  C   UNL     1     -43.107  42.188  26.890  1.00  0.00    -0.008 C 
ATOM     23  F   UNL     1     -41.275  41.304  29.451  1.00  0.00    -0.244 F 
ATOM     24  C   UNL     1     -42.017  41.662  28.416  1.00  0.00     0.112 C 
ATOM     25  C   UNL     1     -42.834  42.966  28.246  1.00  0.00    -0.012 C 
ATOM     26  C   UNL     1     -43.242  40.917  27.831  1.00  0.00    -0.012 C 
ATOM     27  C   UNL     1     -41.554  41.865  26.952  1.00  0.00    -0.012 C 
ATOM     28  H   UNL     1     -42.271  43.902  28.174  1.00  0.00     0.031 H 
ATOM     29  H   UNL     1     -43.691  43.110  28.912  1.00  0.00     0.031 H 
ATOM     30  H   UNL     1     -43.061  39.939  27.370  1.00  0.00     0.031 H 
ATOM     31  H   UNL     1     -44.131  40.858  28.468  1.00  0.00     0.031 H 
ATOM     32  H   UNL     1     -40.868  42.697  26.758  1.00  0.00     0.031 H 
ATOM     33  H   UNL     1     -41.212  40.980  26.408  1.00  0.00     0.031 H 
ENDBRANCH  19  22
ENDBRANCH  17  19
ENDBRANCH  14  17
ENDBRANCH   1  14
BRANCH   6  34
ATOM     34  C   UNL     1     -46.839  34.789  28.108  1.00  0.00     0.085 C 
ATOM     35  H   UNL     1     -45.760  34.648  28.231  1.00  0.00     0.058 H 
ATOM     36  H   UNL     1     -47.332  34.474  29.035  1.00  0.00     0.058 H 
BRANCH  34  37
ATOM     37  N   UNL     1     -47.293  33.888  27.064  1.00  0.00    -0.246 N 
ATOM     38  C   UNL     1     -46.534  33.031  26.314  1.00  0.00     0.054 A 
ATOM     39  N   UNL     1     -48.598  33.780  26.757  1.00  0.00    -0.066 NA
ATOM     40  C   UNL     1     -47.453  32.398  25.509  1.00  0.00     0.115 A 
ATOM     41  H   UNL     1     -45.461  32.974  26.407  1.00  0.00     0.086 H 
ATOM     42  N   UNL     1     -48.706  32.878  25.791  1.00  0.00    -0.130 NA
BRANCH  40  43
ATOM     43  C   UNL     1     -47.233  31.409  24.489  1.00  0.00     0.029 A 
ATOM     44  C   UNL     1     -46.312  31.643  23.516  1.00  0.00    -0.049 A 
ATOM     45  C   UNL     1     -47.931  30.147  24.419  1.00  0.00     0.074 A 
ATOM     46  C   UNL     1     -45.996  30.695  22.459  1.00  0.00    -0.045 A 
ATOM     47  H   UNL     1     -45.747  32.574  23.501  1.00  0.00     0.063 H 
ATOM     48  N   UNL     1     -47.599  29.260  23.404  1.00  0.00    -0.306 N 
ATOM     49  C   UNL     1     -48.945  29.515  25.111  1.00  0.00     0.053 A 
ATOM     50  C   UNL     1     -46.642  29.521  22.431  1.00  0.00     0.010 A 
ATOM     51  H   UNL     1     -45.243  30.959  21.723  1.00  0.00     0.064 H 
ATOM     52  C   UNL     1     -48.389  28.152  23.570  1.00  0.00     0.099 A 
ATOM     53  N   UNL     1     -49.210  28.274  24.591  1.00  0.00    -0.244 NA
ATOM     54  H   UNL     1     -49.507  29.884  25.959  1.00  0.00     0.086 H 
ATOM     55  H   UNL     1     -46.464  28.762  21.680  1.00  0.00     0.082 H 
ATOM     56  H   UNL     1     -48.325  27.293  22.915  1.00  0.00     0.105 H 
ENDBRANCH  40  43
ENDBRANCH  34  37
ENDBRANCH   6  34
TORSDOF 7
ENDMDL
MODEL 4
REMARK VINA RESULT:      -9.4      2.917      3.499
REMARK SMILES F[C@]12C[C@](CNCc3cc4cnc(Cn5cc(-c6cccn7cncc67)nn5)cc4[nH]3)(C1)C2
REMARK SMILES IDX 8 1 9 2 10 3 11 4 12 5 13 6 29 7 30 8 31 9 7 14 6 17 5 19
REMARK SMILES IDX 4 22 1 23 2 24 3 25 33 26 32 27 14 34 15 37 16 38 28 39
REMARK SMILES IDX 17 40 27 42 18 43 19 44 26 45 20 46 22 48 25 49 21 50 23 52
REMARK SMILES IDX 24 53
REMARK H PARENT 9 10 11 11 29 12 31 13 7 15 7 16 6 18 5 20 5 21 3 28 3 29
REMARK H PARENT 33 30 33 31 32 32 32 33 14 35 14 36 16 41 19 47 20 51 25 54
REMARK H PARENT 21 55 23 56
REMARK Flexibility Score: inf
ROOT
ATOM      1  C   UNL     1     -47.140  32.220  25.154  1.00  0.00     0.030 A 
ATOM      2  C   UNL     1     -48.236  32.996  25.475  1.00  0.00    -0.031 A 
ATOM      3  C   UNL     1     -47.806  34.019  26.365  1.00  0.00     0.018 A 
ATOM      4  C   UNL     1     -48.439  35.080  27.017  1.00  0.00     0.037 A 
ATOM      5  N   UNL     1     -47.731  35.913  27.824  1.00  0.00    -0.259 NA
ATOM      6  C   UNL     1     -46.401  35.704  28.024  1.00  0.00     0.064 A 
ATOM      7  C   UNL     1     -45.693  34.680  27.391  1.00  0.00    -0.014 A 
ATOM      8  C   UNL     1     -46.440  33.839  26.566  1.00  0.00     0.049 A 
ATOM      9  N   UNL     1     -46.061  32.744  25.828  1.00  0.00    -0.357 N 
ATOM     10  H   UNL     1     -49.245  32.844  25.113  1.00  0.00     0.065 H 
ATOM     11  H   UNL     1     -49.496  35.292  26.915  1.00  0.00     0.085 H 
ATOM     12  H   UNL     1     -44.630  34.527  27.532  1.00  0.00     0.067 H 
ATOM     13  H   UNL     1     -45.121  32.377  25.754  1.00  0.00     0.166 HD
ENDROOT
BRANCH   1  14
ATOM     14  C   UNL     1     -47.004  31.016  24.290  1.00  0.00     0.036 C 
ATOM     15  H   UNL     1     -47.212  31.306  23.256  1.00  0.00     0.049 H 
ATOM     16  H   UNL     1     -45.972  30.645  24.335  1.00  0.00     0.049 H 
BRANCH  14  17
ATOM     17  N   UNL     1     -47.934  29.987  24.757  1.00  0.00    -0.311 NA
ATOM     18  H   UNL     1     -47.793  29.898  25.765  1.00  0.00     0.123 HD
BRANCH  17  19
ATOM     19  C   UNL     1     -47.673  28.688  24.136  1.00  0.00     0.002 C 
ATOM     20  H   UNL     1     -46.599  28.637  23.921  1.00  0.00     0.043 H 
ATOM     21  H   UNL     1     -48.180  28.597  23.169  1.00  0.00     0.043 H 
BRANCH  19  22
ATOM     22  C   UNL     1     -48.029  27.571  25.048  1.00  0.00    -0.008 C 
ATOM     23  F   UNL     1     -48.595  25.099  27.113  1.00  0.00    -0.244 F 
ATOM     24  C   UNL     1     -48.367  26.100  26.278  1.00  0.00     0.112 C 
ATOM     25  C   UNL     1     -48.353  27.614  26.601  1.00  0.00    -0.012 C 
ATOM     26  C   UNL     1     -49.166  26.464  25.003  1.00  0.00    -0.012 C 
ATOM     27  C   UNL     1     -47.088  26.355  25.444  1.00  0.00    -0.012 C 
ATOM     28  H   UNL     1     -47.559  27.976  27.263  1.00  0.00     0.031 H 
ATOM     29  H   UNL     1     -49.303  28.072  26.894  1.00  0.00     0.031 H 
ATOM     30  H   UNL     1     -49.130  25.753  24.169  1.00  0.00     0.031 H 
ATOM     31  H   UNL     1     -50.197  26.800  25.148  1.00  0.00     0.031 H 
ATOM     32  H   UNL     1     -46.173  26.597  25.996  1.00  0.00     0.031 H 
ATOM     33  H   UNL     1     -46.853  25.635  24.654  1.00  0.00     0.031 H 
ENDBRANCH  19  22
ENDBRANCH  17  19
ENDBRANCH  14  17
ENDBRANCH   1  14
BRANCH   6  34
ATOM     34  C   UNL     1     -45.715  36.721  28.905  1.00  0.00     0.085 C 
ATOM     35  H   UNL     1     -46.130  36.662  29.917  1.00  0.00     0.058 H 
ATOM     36  H   UNL     1     -44.639  36.522  28.965  1.00  0.00     0.058 H 
BRANCH  34  37
ATOM     37  N   UNL     1     -45.864  38.088  28.440  1.00  0.00    -0.246 N 
ATOM     38  C   UNL     1     -45.034  38.778  27.599  1.00  0.00     0.054 A 
ATOM     39  N   UNL     1     -46.932  38.828  28.787  1.00  0.00    -0.066 NA
ATOM     40  C   UNL     1     -45.650  40.001  27.461  1.00  0.00     0.115 A 
ATOM     41  H   UNL     1     -44.118  38.358  27.215  1.00  0.00     0.086 H 
ATOM     42  N   UNL     1     -46.802  40.012  28.203  1.00  0.00    -0.130 NA
BRANCH  40  43
ATOM     43  C   UNL     1     -45.220  41.151  26.715  1.00  0.00     0.029 A 
ATOM     44  C   UNL     1     -46.131  41.868  26.003  1.00  0.00    -0.049 A 
ATOM     45  C   UNL     1     -43.856  41.623  26.666  1.00  0.00     0.074 A 
ATOM     46  C   UNL     1     -45.802  43.064  25.242  1.00  0.00    -0.045 A 
ATOM     47  H   UNL     1     -47.179  41.574  25.990  1.00  0.00     0.063 H 
ATOM     48  N   UNL     1     -43.576  42.772  25.938  1.00  0.00    -0.306 N 
ATOM     49  C   UNL     1     -42.629  41.214  27.150  1.00  0.00     0.053 A 
ATOM     50  C   UNL     1     -44.531  43.492  25.232  1.00  0.00     0.010 A 
ATOM     51  H   UNL     1     -46.591  43.579  24.705  1.00  0.00     0.064 H 
ATOM     52  C   UNL     1     -42.230  43.003  26.062  1.00  0.00     0.099 A 
ATOM     53  N   UNL     1     -41.632  42.084  26.787  1.00  0.00    -0.244 NA
ATOM     54  H   UNL     1     -42.402  40.338  27.741  1.00  0.00     0.086 H 
ATOM     55  H   UNL     1     -44.206  44.372  24.692  1.00  0.00     0.082 H 
ATOM     56  H   UNL     1     -41.745  43.852  25.599  1.00  0.00     0.105 H 
ENDBRANCH  40  43
ENDBRANCH  34  37
ENDBRANCH   6  34
TORSDOF 7
ENDMDL
MODEL 5
REMARK VINA RESULT:      -9.4      2.644      3.642
REMARK SMILES F[C@]12C[C@](CNCc3cc4cnc(Cn5cc(-c6cccn7cncc67)nn5)cc4[nH]3)(C1)C2
REMARK SMILES IDX 8 1 9 2 10 3 11 4 12 5 13 6 29 7 30 8 31 9 7 14 6 17 5 19
REMARK SMILES IDX 4 22 1 23 2 24 3 25 33 26 32 27 14 34 15 37 16 38 28 39
REMARK SMILES IDX 17 40 27 42 18 43 19 44 26 45 20 46 22 48 25 49 21 50 23 52
REMARK SMILES IDX 24 53
REMARK H PARENT 9 10 11 11 29 12 31 13 7 15 7 16 6 18 5 20 5 21 3 28 3 29
REMARK H PARENT 33 30 33 31 32 32 32 33 14 35 14 36 16 41 19 47 20 51 25 54
REMARK H PARENT 21 55 23 56
REMARK Flexibility Score: inf
ROOT
ATOM      1  C   UNL     1     -46.850  33.236  25.435  1.00  0.00     0.030 A 
ATOM      2  C   UNL     1     -48.102  33.647  25.847  1.00  0.00    -0.031 A 
ATOM      3  C   UNL     1     -47.941  34.814  26.646  1.00  0.00     0.018 A 
ATOM      4  C   UNL     1     -48.817  35.664  27.324  1.00  0.00     0.037 A 
ATOM      5  N   UNL     1     -48.342  36.733  28.016  1.00  0.00    -0.259 NA
ATOM      6  C   UNL     1     -47.003  36.968  28.074  1.00  0.00     0.064 A 
ATOM      7  C   UNL     1     -46.066  36.178  27.404  1.00  0.00    -0.014 A 
ATOM      8  C   UNL     1     -46.577  35.089  26.699  1.00  0.00     0.049 A 
ATOM      9  N   UNL     1     -45.938  34.120  25.964  1.00  0.00    -0.357 N 
ATOM     10  H   UNL     1     -49.037  33.159  25.606  1.00  0.00     0.065 H 
ATOM     11  H   UNL     1     -49.891  35.523  27.332  1.00  0.00     0.085 H 
ATOM     12  H   UNL     1     -45.002  36.379  27.431  1.00  0.00     0.067 H 
ATOM     13  H   UNL     1     -44.941  34.064  25.800  1.00  0.00     0.166 HD
ENDROOT
BRANCH   1  14
ATOM     14  C   UNL     1     -46.415  32.078  24.606  1.00  0.00     0.036 C 
ATOM     15  H   UNL     1     -46.493  32.359  23.551  1.00  0.00     0.049 H 
ATOM     16  H   UNL     1     -45.364  31.848  24.818  1.00  0.00     0.049 H 
BRANCH  14  17
ATOM     17  N   UNL     1     -47.261  30.925  24.918  1.00  0.00    -0.311 NA
ATOM     18  H   UNL     1     -46.798  30.416  25.672  1.00  0.00     0.123 HD
BRANCH  17  19
ATOM     19  C   UNL     1     -47.408  30.026  23.773  1.00  0.00     0.002 C 
ATOM     20  H   UNL     1     -46.408  29.857  23.358  1.00  0.00     0.043 H 
ATOM     21  H   UNL     1     -47.993  30.491  22.971  1.00  0.00     0.043 H 
BRANCH  19  22
ATOM     22  C   UNL     1     -47.982  28.718  24.181  1.00  0.00    -0.008 C 
ATOM     23  F   UNL     1     -49.052  25.797  25.188  1.00  0.00    -0.244 F 
ATOM     24  C   UNL     1     -48.620  26.979  24.781  1.00  0.00     0.112 C 
ATOM     25  C   UNL     1     -48.731  28.333  25.526  1.00  0.00    -0.012 C 
ATOM     26  C   UNL     1     -49.035  27.745  23.501  1.00  0.00    -0.012 C 
ATOM     27  C   UNL     1     -47.164  27.384  24.445  1.00  0.00    -0.012 C 
ATOM     28  H   UNL     1     -48.163  28.438  26.457  1.00  0.00     0.031 H 
ATOM     29  H   UNL     1     -49.735  28.745  25.667  1.00  0.00     0.031 H 
ATOM     30  H   UNL     1     -48.751  27.304  22.539  1.00  0.00     0.031 H 
ATOM     31  H   UNL     1     -50.073  28.089  23.449  1.00  0.00     0.031 H 
ATOM     32  H   UNL     1     -46.447  27.399  25.273  1.00  0.00     0.031 H 
ATOM     33  H   UNL     1     -46.701  26.909  23.575  1.00  0.00     0.031 H 
ENDBRANCH  19  22
ENDBRANCH  17  19
ENDBRANCH  14  17
ENDBRANCH   1  14
BRANCH   6  34
ATOM     34  C   UNL     1     -46.601  38.210  28.835  1.00  0.00     0.085 C 
ATOM     35  H   UNL     1     -47.468  38.596  29.382  1.00  0.00     0.058 H 
ATOM     36  H   UNL     1     -45.812  37.982  29.561  1.00  0.00     0.058 H 
BRANCH  34  37
ATOM     37  N   UNL     1     -46.097  39.274  27.986  1.00  0.00    -0.246 N 
ATOM     38  C   UNL     1     -44.811  39.734  27.901  1.00  0.00     0.054 A 
ATOM     39  N   UNL     1     -46.902  39.911  27.118  1.00  0.00    -0.066 NA
ATOM     40  C   UNL     1     -44.876  40.711  26.934  1.00  0.00     0.115 A 
ATOM     41  H   UNL     1     -44.016  39.353  28.522  1.00  0.00     0.086 H 
ATOM     42  N   UNL     1     -46.165  40.809  26.477  1.00  0.00    -0.130 NA
BRANCH  40  43
ATOM     43  C   UNL     1     -43.832  41.566  26.440  1.00  0.00     0.029 A 
ATOM     44  C   UNL     1     -42.575  41.450  26.946  1.00  0.00    -0.049 A 
ATOM     45  C   UNL     1     -44.019  42.564  25.414  1.00  0.00     0.074 A 
ATOM     46  C   UNL     1     -41.445  42.247  26.491  1.00  0.00    -0.045 A 
ATOM     47  H   UNL     1     -42.356  40.721  27.724  1.00  0.00     0.063 H 
ATOM     48  N   UNL     1     -42.919  43.302  24.995  1.00  0.00    -0.306 N 
ATOM     49  C   UNL     1     -45.072  43.070  24.677  1.00  0.00     0.053 A 
ATOM     50  C   UNL     1     -41.642  43.150  25.521  1.00  0.00     0.010 A 
ATOM     51  H   UNL     1     -40.473  42.087  26.946  1.00  0.00     0.064 H 
ATOM     52  C   UNL     1     -43.362  44.159  24.021  1.00  0.00     0.099 A 
ATOM     53  N   UNL     1     -44.654  44.042  23.805  1.00  0.00    -0.244 NA
ATOM     54  H   UNL     1     -46.116  42.790  24.724  1.00  0.00     0.086 H 
ATOM     55  H   UNL     1     -40.855  43.780  25.127  1.00  0.00     0.082 H 
ATOM     56  H   UNL     1     -42.699  44.845  23.511  1.00  0.00     0.105 H 
ENDBRANCH  40  43
ENDBRANCH  34  37
ENDBRANCH   6  34
TORSDOF 7
ENDMDL
MODEL 6
REMARK VINA RESULT:      -9.2      3.611     11.068
REMARK SMILES F[C@]12C[C@](CNCc3cc4cnc(Cn5cc(-c6cccn7cncc67)nn5)cc4[nH]3)(C1)C2
REMARK SMILES IDX 8 1 9 2 10 3 11 4 12 5 13 6 29 7 30 8 31 9 7 14 6 17 5 19
REMARK SMILES IDX 4 22 1 23 2 24 3 25 33 26 32 27 14 34 15 37 16 38 28 39
REMARK SMILES IDX 17 40 27 42 18 43 19 44 26 45 20 46 22 48 25 49 21 50 23 52
REMARK SMILES IDX 24 53
REMARK H PARENT 9 10 11 11 29 12 31 13 7 15 7 16 6 18 5 20 5 21 3 28 3 29
REMARK H PARENT 33 30 33 31 32 32 32 33 14 35 14 36 16 41 19 47 20 51 25 54
REMARK H PARENT 21 55 23 56
REMARK Flexibility Score: inf
ROOT
ATOM      1  C   UNL     1     -46.703  39.578  26.999  1.00  0.00     0.030 A 
ATOM      2  C   UNL     1     -46.894  39.185  28.309  1.00  0.00    -0.031 A 
ATOM      3  C   UNL     1     -46.793  37.767  28.362  1.00  0.00     0.018 A 
ATOM      4  C   UNL     1     -46.888  36.815  29.381  1.00  0.00     0.037 A 
ATOM      5  N   UNL     1     -46.733  35.494  29.106  1.00  0.00    -0.259 NA
ATOM      6  C   UNL     1     -46.508  35.084  27.828  1.00  0.00     0.064 A 
ATOM      7  C   UNL     1     -46.376  35.974  26.760  1.00  0.00    -0.014 A 
ATOM      8  C   UNL     1     -46.537  37.325  27.066  1.00  0.00     0.049 A 
ATOM      9  N   UNL     1     -46.492  38.437  26.260  1.00  0.00    -0.357 N 
ATOM     10  H   UNL     1     -47.091  39.845  29.143  1.00  0.00     0.065 H 
ATOM     11  H   UNL     1     -47.082  37.074  30.415  1.00  0.00     0.085 H 
ATOM     12  H   UNL     1     -46.174  35.649  25.746  1.00  0.00     0.067 H 
ATOM     13  H   UNL     1     -46.302  38.439  25.266  1.00  0.00     0.166 HD
ENDROOT
BRANCH   1  14
ATOM     14  C   UNL     1     -46.719  40.922  26.360  1.00  0.00     0.036 C 
ATOM     15  H   UNL     1     -47.531  40.948  25.628  1.00  0.00     0.049 H 
ATOM     16  H   UNL     1     -46.923  41.688  27.119  1.00  0.00     0.049 H 
BRANCH  14  17
ATOM     17  N   UNL     1     -45.420  41.165  25.730  1.00  0.00    -0.311 NA
ATOM     18  H   UNL     1     -44.808  40.397  26.012  1.00  0.00     0.123 HD
BRANCH  17  19
ATOM     19  C   UNL     1     -44.821  42.424  26.174  1.00  0.00     0.002 C 
ATOM     20  H   UNL     1     -45.556  42.931  26.808  1.00  0.00     0.043 H 
ATOM     21  H   UNL     1     -44.633  43.098  25.330  1.00  0.00     0.043 H 
BRANCH  19  22
ATOM     22  C   UNL     1     -43.589  42.186  26.969  1.00  0.00    -0.008 C 
ATOM     23  F   UNL     1     -40.983  41.753  28.897  1.00  0.00    -0.244 F 
ATOM     24  C   UNL     1     -42.037  41.927  28.117  1.00  0.00     0.112 C 
ATOM     25  C   UNL     1     -43.230  40.961  27.912  1.00  0.00    -0.012 C 
ATOM     26  C   UNL     1     -42.050  42.136  26.582  1.00  0.00    -0.012 C 
ATOM     27  C   UNL     1     -43.085  43.064  28.192  1.00  0.00    -0.012 C 
ATOM     28  H   UNL     1     -43.886  40.788  28.771  1.00  0.00     0.031 H 
ATOM     29  H   UNL     1     -43.020  40.005  27.419  1.00  0.00     0.031 H 
ATOM     30  H   UNL     1     -41.607  43.062  26.199  1.00  0.00     0.031 H 
ATOM     31  H   UNL     1     -41.716  41.293  25.969  1.00  0.00     0.031 H 
ATOM     32  H   UNL     1     -43.728  43.092  29.079  1.00  0.00     0.031 H 
ATOM     33  H   UNL     1     -42.742  44.078  27.963  1.00  0.00     0.031 H 
ENDBRANCH  19  22
ENDBRANCH  17  19
ENDBRANCH  14  17
ENDBRANCH   1  14
BRANCH   6  34
ATOM     34  C   UNL     1     -46.309  33.597  27.656  1.00  0.00     0.085 C 
ATOM     35  H   UNL     1     -45.240  33.366  27.713  1.00  0.00     0.058 H 
ATOM     36  H   UNL     1     -46.822  33.041  28.449  1.00  0.00     0.058 H 
BRANCH  34  37
ATOM     37  N   UNL     1     -46.810  33.086  26.393  1.00  0.00    -0.246 N 
ATOM     38  C   UNL     1     -48.030  32.516  26.149  1.00  0.00     0.054 A 
ATOM     39  N   UNL     1     -46.081  33.178  25.267  1.00  0.00    -0.066 NA
ATOM     40  C   UNL     1     -48.002  32.245  24.801  1.00  0.00     0.115 A 
ATOM     41  H   UNL     1     -48.757  32.348  26.928  1.00  0.00     0.086 H 
ATOM     42  N   UNL     1     -46.798  32.649  24.284  1.00  0.00    -0.130 NA
BRANCH  40  43
ATOM     43  C   UNL     1     -49.003  31.616  23.983  1.00  0.00     0.029 A 
ATOM     44  C   UNL     1     -50.317  31.762  24.300  1.00  0.00    -0.049 A 
ATOM     45  C   UNL     1     -48.712  30.822  22.813  1.00  0.00     0.074 A 
ATOM     46  C   UNL     1     -51.405  31.191  23.520  1.00  0.00    -0.045 A 
ATOM     47  H   UNL     1     -50.616  32.345  25.170  1.00  0.00     0.063 H 
ATOM     48  N   UNL     1     -49.772  30.299  22.084  1.00  0.00    -0.306 N 
ATOM     49  C   UNL     1     -47.586  30.363  22.160  1.00  0.00     0.053 A 
ATOM     50  C   UNL     1     -51.107  30.477  22.425  1.00  0.00     0.010 A 
ATOM     51  H   UNL     1     -52.427  31.359  23.841  1.00  0.00     0.064 H 
ATOM     52  C   UNL     1     -49.229  29.606  21.033  1.00  0.00     0.099 A 
ATOM     53  N   UNL     1     -47.914  29.627  21.049  1.00  0.00    -0.244 NA
ATOM     54  H   UNL     1     -46.548  30.518  22.425  1.00  0.00     0.086 H 
ATOM     55  H   UNL     1     -51.856  30.021  21.792  1.00  0.00     0.082 H 
ATOM     56  H   UNL     1     -49.840  29.104  20.295  1.00  0.00     0.105 H 
ENDBRANCH  40  43
ENDBRANCH  34  37
ENDBRANCH   6  34
TORSDOF 7
ENDMDL
MODEL 7
REMARK VINA RESULT:      -9.0      3.129      4.206
REMARK SMILES F[C@]12C[C@](CNCc3cc4cnc(Cn5cc(-c6cccn7cncc67)nn5)cc4[nH]3)(C1)C2
REMARK SMILES IDX 8 1 9 2 10 3 11 4 12 5 13 6 29 7 30 8 31 9 7 14 6 17 5 19
REMARK SMILES IDX 4 22 1 23 2 24 3 25 33 26 32 27 14 34 15 37 16 38 28 39
REMARK SMILES IDX 17 40 27 42 18 43 19 44 26 45 20 46 22 48 25 49 21 50 23 52
REMARK SMILES IDX 24 53
REMARK H PARENT 9 10 11 11 29 12 31 13 7 15 7 16 6 18 5 20 5 21 3 28 3 29
REMARK H PARENT 33 30 33 31 32 32 32 33 14 35 14 36 16 41 19 47 20 51 25 54
REMARK H PARENT 21 55 23 56
REMARK Flexibility Score: inf
ROOT
ATOM      1  C   UNL     1     -48.642  30.921  23.230  1.00  0.00     0.030 A 
ATOM      2  C   UNL     1     -49.517  31.476  24.142  1.00  0.00    -0.031 A 
ATOM      3  C   UNL     1     -48.760  32.253  25.062  1.00  0.00     0.018 A 
ATOM      4  C   UNL     1     -49.075  33.034  26.177  1.00  0.00     0.037 A 
ATOM      5  N   UNL     1     -48.098  33.678  26.866  1.00  0.00    -0.259 NA
ATOM      6  C   UNL     1     -46.797  33.546  26.490  1.00  0.00     0.064 A 
ATOM      7  C   UNL     1     -46.403  32.802  25.375  1.00  0.00    -0.014 A 
ATOM      8  C   UNL     1     -47.424  32.152  24.682  1.00  0.00     0.049 A 
ATOM      9  N   UNL     1     -47.377  31.339  23.576  1.00  0.00    -0.357 N 
ATOM     10  H   UNL     1     -50.590  31.336  24.152  1.00  0.00     0.065 H 
ATOM     11  H   UNL     1     -50.088  33.167  26.538  1.00  0.00     0.085 H 
ATOM     12  H   UNL     1     -45.369  32.715  25.062  1.00  0.00     0.067 H 
ATOM     13  H   UNL     1     -46.544  31.094  23.057  1.00  0.00     0.166 HD
ENDROOT
BRANCH   1  14
ATOM     14  C   UNL     1     -48.868  30.015  22.071  1.00  0.00     0.036 C 
ATOM     15  H   UNL     1     -49.942  29.981  21.862  1.00  0.00     0.049 H 
ATOM     16  H   UNL     1     -48.364  30.418  21.184  1.00  0.00     0.049 H 
BRANCH  14  17
ATOM     17  N   UNL     1     -48.342  28.687  22.395  1.00  0.00    -0.311 NA
ATOM     18  H   UNL     1     -48.156  28.220  21.506  1.00  0.00     0.123 HD
BRANCH  17  19
ATOM     19  C   UNL     1     -49.306  27.884  23.148  1.00  0.00     0.002 C 
ATOM     20  H   UNL     1     -49.560  27.013  22.532  1.00  0.00     0.043 H 
ATOM     21  H   UNL     1     -50.245  28.427  23.304  1.00  0.00     0.043 H 
BRANCH  19  22
ATOM     22  C   UNL     1     -48.729  27.407  24.431  1.00  0.00    -0.008 C 
ATOM     23  F   UNL     1     -47.615  26.477  27.361  1.00  0.00    -0.244 F 
ATOM     24  C   UNL     1     -48.065  26.852  26.176  1.00  0.00     0.112 C 
ATOM     25  C   UNL     1     -49.165  26.171  25.324  1.00  0.00    -0.012 C 
ATOM     26  C   UNL     1     -47.257  26.999  24.863  1.00  0.00    -0.012 C 
ATOM     27  C   UNL     1     -48.738  28.197  25.808  1.00  0.00    -0.012 C 
ATOM     28  H   UNL     1     -50.185  26.183  25.723  1.00  0.00     0.031 H 
ATOM     29  H   UNL     1     -48.944  25.174  24.928  1.00  0.00     0.031 H 
ATOM     30  H   UNL     1     -46.496  27.786  24.829  1.00  0.00     0.031 H 
ATOM     31  H   UNL     1     -46.847  26.079  24.434  1.00  0.00     0.031 H 
ATOM     32  H   UNL     1     -49.718  28.403  26.253  1.00  0.00     0.031 H 
ATOM     33  H   UNL     1     -48.120  29.098  25.864  1.00  0.00     0.031 H 
ENDBRANCH  19  22
ENDBRANCH  17  19
ENDBRANCH  14  17
ENDBRANCH   1  14
BRANCH   6  34
ATOM     34  C   UNL     1     -45.807  34.344  27.306  1.00  0.00     0.085 C 
ATOM     35  H   UNL     1     -45.545  33.781  28.208  1.00  0.00     0.058 H 
ATOM     36  H   UNL     1     -44.888  34.523  26.736  1.00  0.00     0.058 H 
BRANCH  34  37
ATOM     37  N   UNL     1     -46.306  35.643  27.717  1.00  0.00    -0.246 N 
ATOM     38  C   UNL     1     -46.638  36.701  26.915  1.00  0.00     0.054 A 
ATOM     39  N   UNL     1     -46.544  35.919  29.011  1.00  0.00    -0.066 NA
ATOM     40  C   UNL     1     -47.081  37.657  27.800  1.00  0.00     0.115 A 
ATOM     41  H   UNL     1     -46.512  36.678  25.844  1.00  0.00     0.086 H 
ATOM     42  N   UNL     1     -47.005  37.161  29.075  1.00  0.00    -0.130 NA
BRANCH  40  43
ATOM     43  C   UNL     1     -47.534  38.995  27.534  1.00  0.00     0.029 A 
ATOM     44  C   UNL     1     -48.802  39.353  27.875  1.00  0.00    -0.049 A 
ATOM     45  C   UNL     1     -46.723  40.020  26.922  1.00  0.00     0.074 A 
ATOM     46  C   UNL     1     -49.345  40.688  27.676  1.00  0.00    -0.045 A 
ATOM     47  H   UNL     1     -49.475  38.634  28.339  1.00  0.00     0.063 H 
ATOM     48  N   UNL     1     -47.267  41.287  26.755  1.00  0.00    -0.306 N 
ATOM     49  C   UNL     1     -45.459  40.114  26.377  1.00  0.00     0.053 A 
ATOM     50  C   UNL     1     -48.562  41.627  27.126  1.00  0.00     0.010 A 
ATOM     51  H   UNL     1     -50.366  40.891  27.981  1.00  0.00     0.064 H 
ATOM     52  C   UNL     1     -46.299  42.062  26.170  1.00  0.00     0.099 A 
ATOM     53  N   UNL     1     -45.198  41.385  25.930  1.00  0.00    -0.244 NA
ATOM     54  H   UNL     1     -44.714  39.336  26.276  1.00  0.00     0.086 H 
ATOM     55  H   UNL     1     -48.890  42.643  26.947  1.00  0.00     0.082 H 
ATOM     56  H   UNL     1     -46.458  43.106  25.938  1.00  0.00     0.105 H 
ENDBRANCH  40  43
ENDBRANCH  34  37
ENDBRANCH   6  34
TORSDOF 7
ENDMDL
