MODEL 1
REMARK VINA RESULT:      -9.9      0.000      0.000
REMARK SMILES CCNc1ccc2ccc(OCc3cncc(-n4cc([C@@H]5CCCO5)c5c(N)ncnc54)c3)cc2n1
REMARK SMILES IDX 11 1 10 2 4 3 5 4 36 5 6 6 35 8 7 9 34 11 8 12 9 14 3 17
REMARK SMILES IDX 2 19 1 22 12 26 13 29 14 30 33 31 15 32 17 34 16 36 18 38
REMARK SMILES IDX 19 39 32 40 20 41 26 43 31 44 27 45 30 46 29 47 21 49 22 50
REMARK SMILES IDX 25 51 23 53 24 56 28 61
REMARK H PARENT 5 7 6 10 34 13 8 15 9 16 3 18 2 20 2 21 1 23 1 24 1 25 12 27
REMARK H PARENT 12 28 14 33 33 35 16 37 19 42 30 48 21 52 22 54 22 55 23 57
REMARK H PARENT 23 58 24 59 24 60 28 62 28 63
REMARK Flexibility Score: inf
ROOT
ATOM      1  O   UNL     1     -48.447  36.478  27.053  1.00  0.00    -0.489 OA
ENDROOT
BRANCH   1   2
ATOM      2  C   UNL     1     -47.443  36.827  27.914  1.00  0.00     0.122 A 
ATOM      3  C   UNL     1     -43.941  39.996  28.562  1.00  0.00     0.126 A 
ATOM      4  C   UNL     1     -43.578  39.415  29.772  1.00  0.00    -0.019 A 
ATOM      5  N   UNL     1     -44.953  39.506  27.820  1.00  0.00    -0.231 NA
ATOM      6  C   UNL     1     -44.287  38.312  30.241  1.00  0.00    -0.049 A 
ATOM      7  H   UNL     1     -42.741  39.805  30.342  1.00  0.00     0.066 H 
ATOM      8  C   UNL     1     -45.642  38.437  28.265  1.00  0.00     0.076 A 
ATOM      9  C   UNL     1     -45.343  37.802  29.483  1.00  0.00     0.001 A 
ATOM     10  H   UNL     1     -44.003  37.857  31.186  1.00  0.00     0.063 H 
ATOM     11  C   UNL     1     -46.687  37.932  27.506  1.00  0.00     0.007 A 
ATOM     12  C   UNL     1     -46.094  36.694  29.907  1.00  0.00    -0.049 A 
ATOM     13  H   UNL     1     -46.923  38.418  26.561  1.00  0.00     0.069 H 
ATOM     14  C   UNL     1     -47.143  36.209  29.124  1.00  0.00    -0.019 A 
ATOM     15  H   UNL     1     -45.867  36.203  30.851  1.00  0.00     0.063 H 
ATOM     16  H   UNL     1     -47.702  35.358  29.497  1.00  0.00     0.066 H 
BRANCH   3  17
ATOM     17  N   UNL     1     -43.183  41.091  28.108  1.00  0.00    -0.370 N 
ATOM     18  H   UNL     1     -42.805  40.870  27.192  1.00  0.00     0.162 HD
BRANCH  17  19
ATOM     19  C   UNL     1     -42.148  41.533  29.038  1.00  0.00     0.013 C 
ATOM     20  H   UNL     1     -42.153  40.915  29.945  1.00  0.00     0.049 H 
ATOM     21  H   UNL     1     -42.305  42.579  29.324  1.00  0.00     0.049 H 
BRANCH  19  22
ATOM     22  C   UNL     1     -40.789  41.413  28.366  1.00  0.00    -0.048 C 
ATOM     23  H   UNL     1     -39.987  41.723  29.043  1.00  0.00     0.025 H 
ATOM     24  H   UNL     1     -40.735  42.044  27.472  1.00  0.00     0.025 H 
ATOM     25  H   UNL     1     -40.603  40.378  28.065  1.00  0.00     0.025 H 
ENDBRANCH  19  22
ENDBRANCH  17  19
ENDBRANCH   3  17
ENDBRANCH   1   2
BRANCH   1  26
ATOM     26  C   UNL     1     -48.950  35.139  27.080  1.00  0.00     0.115 C 
ATOM     27  H   UNL     1     -50.008  35.117  26.793  1.00  0.00     0.076 H 
ATOM     28  H   UNL     1     -48.909  34.815  28.127  1.00  0.00     0.076 H 
BRANCH  26  29
ATOM     29  C   UNL     1     -48.121  34.169  26.276  1.00  0.00     0.010 A 
ATOM     30  C   UNL     1     -46.839  34.519  25.876  1.00  0.00     0.034 A 
ATOM     31  C   UNL     1     -48.609  32.922  25.859  1.00  0.00    -0.028 A 
ATOM     32  N   UNL     1     -46.037  33.721  25.143  1.00  0.00    -0.262 NA
ATOM     33  H   UNL     1     -46.402  35.478  26.141  1.00  0.00     0.084 H 
ATOM     34  C   UNL     1     -47.805  32.056  25.102  1.00  0.00     0.066 A 
ATOM     35  H   UNL     1     -49.626  32.663  26.136  1.00  0.00     0.065 H 
ATOM     36  C   UNL     1     -46.534  32.511  24.775  1.00  0.00     0.051 A 
ATOM     37  H   UNL     1     -45.818  31.928  24.208  1.00  0.00     0.086 H 
BRANCH  34  38
ATOM     38  N   UNL     1     -48.279  30.765  24.704  1.00  0.00    -0.299 N 
ATOM     39  C   UNL     1     -48.453  29.684  25.558  1.00  0.00     0.018 A 
ATOM     40  C   UNL     1     -48.640  30.338  23.426  1.00  0.00     0.150 A 
ATOM     41  C   UNL     1     -48.903  28.579  24.856  1.00  0.00     0.012 A 
ATOM     42  H   UNL     1     -48.223  29.766  26.609  1.00  0.00     0.083 H 
ATOM     43  C   UNL     1     -49.017  29.000  23.495  1.00  0.00     0.067 A 
ATOM     44  N   UNL     1     -48.648  31.082  22.302  1.00  0.00    -0.218 NA
ATOM     45  C   UNL     1     -49.406  28.385  22.291  1.00  0.00     0.136 A 
ATOM     46  C   UNL     1     -49.047  30.394  21.224  1.00  0.00     0.120 A 
ATOM     47  N   UNL     1     -49.411  29.105  21.156  1.00  0.00    -0.219 NA
ATOM     48  H   UNL     1     -49.076  30.945  20.289  1.00  0.00     0.106 H 
BRANCH  41  49
ATOM     49  C   UNL     1     -49.230  27.202  25.375  1.00  0.00     0.085 C 
ATOM     50  C   UNL     1     -49.003  26.973  26.864  1.00  0.00    -0.020 C 
ATOM     51  O   UNL     1     -48.406  26.216  24.707  1.00  0.00    -0.373 OA
ATOM     52  H   UNL     1     -50.276  26.989  25.126  1.00  0.00     0.066 H 
ATOM     53  C   UNL     1     -47.568  26.509  26.909  1.00  0.00    -0.027 C 
ATOM     54  H   UNL     1     -49.646  26.151  27.205  1.00  0.00     0.030 H 
ATOM     55  H   UNL     1     -49.207  27.833  27.507  1.00  0.00     0.030 H 
ATOM     56  C   UNL     1     -47.475  25.671  25.654  1.00  0.00     0.048 C 
ATOM     57  H   UNL     1     -47.316  25.948  27.813  1.00  0.00     0.029 H 
ATOM     58  H   UNL     1     -46.890  27.366  26.841  1.00  0.00     0.029 H 
ATOM     59  H   UNL     1     -47.769  24.634  25.847  1.00  0.00     0.057 H 
ATOM     60  H   UNL     1     -46.470  25.672  25.222  1.00  0.00     0.057 H 
ENDBRANCH  41  49
BRANCH  45  61
ATOM     61  N   UNL     1     -49.770  27.048  22.194  1.00  0.00    -0.383 N 
ATOM     62  H   UNL     1     -49.650  26.588  23.089  1.00  0.00     0.158 HD
ATOM     63  H   UNL     1     -50.685  26.924  21.761  1.00  0.00     0.158 HD
ENDBRANCH  45  61
ENDBRANCH  34  38
ENDBRANCH  26  29
ENDBRANCH   1  26
TORSDOF 9
ENDMDL
MODEL 2
REMARK VINA RESULT:      -9.9      2.448     12.144
REMARK SMILES CCNc1ccc2ccc(OCc3cncc(-n4cc([C@@H]5CCCO5)c5c(N)ncnc54)c3)cc2n1
REMARK SMILES IDX 11 1 10 2 4 3 5 4 36 5 6 6 35 8 7 9 34 11 8 12 9 14 3 17
REMARK SMILES IDX 2 19 1 22 12 26 13 29 14 30 33 31 15 32 17 34 16 36 18 38
REMARK SMILES IDX 19 39 32 40 20 41 26 43 31 44 27 45 30 46 29 47 21 49 22 50
REMARK SMILES IDX 25 51 23 53 24 56 28 61
REMARK H PARENT 5 7 6 10 34 13 8 15 9 16 3 18 2 20 2 21 1 23 1 24 1 25 12 27
REMARK H PARENT 12 28 14 33 33 35 16 37 19 42 30 48 21 52 22 54 22 55 23 57
REMARK H PARENT 23 58 24 59 24 60 28 62 28 63
REMARK Flexibility Score: inf
ROOT
ATOM      1  O   UNL     1     -47.558  33.597  27.163  1.00  0.00    -0.489 OA
ENDROOT
BRANCH   1   2
ATOM      2  C   UNL     1     -47.400  32.727  26.119  1.00  0.00     0.122 A 
ATOM      3  C   UNL     1     -49.104  28.674  24.276  1.00  0.00     0.126 A 
ATOM      4  C   UNL     1     -48.221  28.738  23.204  1.00  0.00    -0.019 A 
ATOM      5  N   UNL     1     -49.112  29.616  25.240  1.00  0.00    -0.231 NA
ATOM      6  C   UNL     1     -47.335  29.807  23.111  1.00  0.00    -0.049 A 
ATOM      7  H   UNL     1     -48.209  27.955  22.452  1.00  0.00     0.066 H 
ATOM      8  C   UNL     1     -48.255  30.652  25.159  1.00  0.00     0.076 A 
ATOM      9  C   UNL     1     -47.341  30.792  24.100  1.00  0.00     0.001 A 
ATOM     10  H   UNL     1     -46.644  29.857  22.273  1.00  0.00     0.063 H 
ATOM     11  C   UNL     1     -48.263  31.625  26.148  1.00  0.00     0.007 A 
ATOM     12  C   UNL     1     -46.471  31.894  24.057  1.00  0.00    -0.049 A 
ATOM     13  H   UNL     1     -48.967  31.522  26.971  1.00  0.00     0.069 H 
ATOM     14  C   UNL     1     -46.502  32.860  25.064  1.00  0.00    -0.019 A 
ATOM     15  H   UNL     1     -45.765  32.007  23.237  1.00  0.00     0.063 H 
ATOM     16  H   UNL     1     -45.820  33.699  24.983  1.00  0.00     0.066 H 
BRANCH   3  17
ATOM     17  N   UNL     1     -49.966  27.564  24.350  1.00  0.00    -0.370 N 
ATOM     18  H   UNL     1     -50.904  27.862  24.102  1.00  0.00     0.162 HD
BRANCH  17  19
ATOM     19  C   UNL     1     -49.931  26.862  25.629  1.00  0.00     0.013 C 
ATOM     20  H   UNL     1     -50.767  26.155  25.706  1.00  0.00     0.049 H 
ATOM     21  H   UNL     1     -49.992  27.570  26.463  1.00  0.00     0.049 H 
BRANCH  19  22
ATOM     22  C   UNL     1     -48.623  26.093  25.741  1.00  0.00    -0.048 C 
ATOM     23  H   UNL     1     -48.671  25.351  26.545  1.00  0.00     0.025 H 
ATOM     24  H   UNL     1     -47.788  26.767  25.958  1.00  0.00     0.025 H 
ATOM     25  H   UNL     1     -48.407  25.571  24.805  1.00  0.00     0.025 H 
ENDBRANCH  19  22
ENDBRANCH  17  19
ENDBRANCH   3  17
ENDBRANCH   1   2
BRANCH   1  26
ATOM     26  C   UNL     1     -46.468  34.449  27.527  1.00  0.00     0.115 C 
ATOM     27  H   UNL     1     -45.615  34.295  26.854  1.00  0.00     0.076 H 
ATOM     28  H   UNL     1     -46.138  34.120  28.520  1.00  0.00     0.076 H 
BRANCH  26  29
ATOM     29  C   UNL     1     -46.852  35.902  27.637  1.00  0.00     0.010 A 
ATOM     30  C   UNL     1     -48.187  36.259  27.761  1.00  0.00     0.034 A 
ATOM     31  C   UNL     1     -45.912  36.941  27.570  1.00  0.00    -0.028 A 
ATOM     32  N   UNL     1     -48.620  37.532  27.850  1.00  0.00    -0.262 NA
ATOM     33  H   UNL     1     -48.975  35.511  27.797  1.00  0.00     0.084 H 
ATOM     34  C   UNL     1     -46.316  38.280  27.666  1.00  0.00     0.066 A 
ATOM     35  H   UNL     1     -44.870  36.666  27.432  1.00  0.00     0.065 H 
ATOM     36  C   UNL     1     -47.680  38.512  27.803  1.00  0.00     0.051 A 
ATOM     37  H   UNL     1     -48.110  39.501  27.902  1.00  0.00     0.086 H 
BRANCH  34  38
ATOM     38  N   UNL     1     -45.361  39.347  27.638  1.00  0.00    -0.299 N 
ATOM     39  C   UNL     1     -45.311  40.345  26.674  1.00  0.00     0.018 A 
ATOM     40  C   UNL     1     -44.317  39.590  28.531  1.00  0.00     0.150 A 
ATOM     41  C   UNL     1     -44.258  41.208  26.922  1.00  0.00     0.012 A 
ATOM     42  H   UNL     1     -46.018  40.362  25.857  1.00  0.00     0.083 H 
ATOM     43  C   UNL     1     -43.624  40.719  28.107  1.00  0.00     0.067 A 
ATOM     44  N   UNL     1     -44.022  38.876  29.635  1.00  0.00    -0.218 NA
ATOM     45  C   UNL     1     -42.519  41.118  28.881  1.00  0.00     0.136 A 
ATOM     46  C   UNL     1     -42.960  39.356  30.297  1.00  0.00     0.120 A 
ATOM     47  N   UNL     1     -42.200  40.414  29.981  1.00  0.00    -0.219 NA
ATOM     48  H   UNL     1     -42.678  38.822  31.199  1.00  0.00     0.106 H 
BRANCH  41  49
ATOM     49  C   UNL     1     -43.836  42.427  26.144  1.00  0.00     0.085 C 
ATOM     50  C   UNL     1     -44.182  43.774  26.764  1.00  0.00    -0.020 C 
ATOM     51  O   UNL     1     -44.478  42.429  24.845  1.00  0.00    -0.373 OA
ATOM     52  H   UNL     1     -42.753  42.365  25.982  1.00  0.00     0.066 H 
ATOM     53  C   UNL     1     -45.556  44.050  26.204  1.00  0.00    -0.027 C 
ATOM     54  H   UNL     1     -43.491  44.537  26.382  1.00  0.00     0.030 H 
ATOM     55  H   UNL     1     -44.138  43.813  27.856  1.00  0.00     0.030 H 
ATOM     56  C   UNL     1     -45.433  43.499  24.801  1.00  0.00     0.048 C 
ATOM     57  H   UNL     1     -45.833  45.107  26.220  1.00  0.00     0.029 H 
ATOM     58  H   UNL     1     -46.313  43.490  26.763  1.00  0.00     0.029 H 
ATOM     59  H   UNL     1     -45.048  44.257  24.110  1.00  0.00     0.057 H 
ATOM     60  H   UNL     1     -46.384  43.126  24.411  1.00  0.00     0.057 H 
ENDBRANCH  41  49
BRANCH  45  61
ATOM     61  N   UNL     1     -41.708  42.199  28.563  1.00  0.00    -0.383 N 
ATOM     62  H   UNL     1     -40.812  42.112  29.028  1.00  0.00     0.158 HD
ATOM     63  H   UNL     1     -41.662  42.369  27.558  1.00  0.00     0.158 HD
ENDBRANCH  45  61
ENDBRANCH  34  38
ENDBRANCH  26  29
ENDBRANCH   1  26
TORSDOF 9
ENDMDL
MODEL 3
REMARK VINA RESULT:      -9.8      1.835      2.536
REMARK SMILES CCNc1ccc2ccc(OCc3cncc(-n4cc([C@@H]5CCCO5)c5c(N)ncnc54)c3)cc2n1
REMARK SMILES IDX 11 1 10 2 4 3 5 4 36 5 6 6 35 8 7 9 34 11 8 12 9 14 3 17
REMARK SMILES IDX 2 19 1 22 12 26 13 29 14 30 33 31 15 32 17 34 16 36 18 38
REMARK SMILES IDX 19 39 32 40 20 41 26 43 31 44 27 45 30 46 29 47 21 49 22 50
REMARK SMILES IDX 25 51 23 53 24 56 28 61
REMARK H PARENT 5 7 6 10 34 13 8 15 9 16 3 18 2 20 2 21 1 23 1 24 1 25 12 27
REMARK H PARENT 12 28 14 33 33 35 16 37 19 42 30 48 21 52 22 54 22 55 23 57
REMARK H PARENT 23 58 24 59 24 60 28 62 28 63
REMARK Flexibility Score: inf
ROOT
ATOM      1  O   UNL     1     -46.283  37.175  27.579  1.00  0.00    -0.489 OA
ENDROOT
BRANCH   1   2
ATOM      2  C   UNL     1     -45.354  37.922  28.249  1.00  0.00     0.122 A 
ATOM      3  C   UNL     1     -42.653  41.832  27.872  1.00  0.00     0.126 A 
ATOM      4  C   UNL     1     -42.120  41.641  29.142  1.00  0.00    -0.019 A 
ATOM      5  N   UNL     1     -43.553  40.977  27.349  1.00  0.00    -0.231 NA
ATOM      6  C   UNL     1     -42.538  40.552  29.902  1.00  0.00    -0.049 A 
ATOM      7  H   UNL     1     -41.374  42.324  29.535  1.00  0.00     0.066 H 
ATOM      8  C   UNL     1     -43.960  39.918  28.076  1.00  0.00     0.076 A 
ATOM      9  C   UNL     1     -43.477  39.665  29.372  1.00  0.00     0.001 A 
ATOM     10  H   UNL     1     -42.121  40.402  30.895  1.00  0.00     0.063 H 
ATOM     11  C   UNL     1     -44.890  39.038  27.543  1.00  0.00     0.007 A 
ATOM     12  C   UNL     1     -43.936  38.551  30.094  1.00  0.00    -0.049 A 
ATOM     13  H   UNL     1     -45.267  39.228  26.540  1.00  0.00     0.069 H 
ATOM     14  C   UNL     1     -44.874  37.682  29.533  1.00  0.00    -0.019 A 
ATOM     15  H   UNL     1     -43.566  38.354  31.098  1.00  0.00     0.063 H 
ATOM     16  H   UNL     1     -45.208  36.842  30.131  1.00  0.00     0.066 H 
BRANCH   3  17
ATOM     17  N   UNL     1     -42.186  42.928  27.124  1.00  0.00    -0.370 N 
ATOM     18  H   UNL     1     -42.240  43.763  27.699  1.00  0.00     0.162 HD
BRANCH  17  19
ATOM     19  C   UNL     1     -42.850  43.103  25.836  1.00  0.00     0.013 C 
ATOM     20  H   UNL     1     -43.601  42.320  25.677  1.00  0.00     0.049 H 
ATOM     21  H   UNL     1     -42.123  43.065  25.016  1.00  0.00     0.049 H 
BRANCH  19  22
ATOM     22  C   UNL     1     -43.538  44.459  25.810  1.00  0.00    -0.048 C 
ATOM     23  H   UNL     1     -44.622  44.352  25.915  1.00  0.00     0.025 H 
ATOM     24  H   UNL     1     -43.343  44.981  24.867  1.00  0.00     0.025 H 
ATOM     25  H   UNL     1     -43.174  45.087  26.629  1.00  0.00     0.025 H 
ENDBRANCH  19  22
ENDBRANCH  17  19
ENDBRANCH   3  17
ENDBRANCH   1   2
BRANCH   1  26
ATOM     26  C   UNL     1     -45.913  35.880  27.094  1.00  0.00     0.115 C 
ATOM     27  H   UNL     1     -45.216  35.392  27.787  1.00  0.00     0.076 H 
ATOM     28  H   UNL     1     -45.356  36.047  26.164  1.00  0.00     0.076 H 
BRANCH  26  29
ATOM     29  C   UNL     1     -47.093  35.003  26.761  1.00  0.00     0.010 A 
ATOM     30  C   UNL     1     -48.374  35.400  27.119  1.00  0.00     0.034 A 
ATOM     31  C   UNL     1     -46.956  33.754  26.139  1.00  0.00    -0.028 A 
ATOM     32  N   UNL     1     -49.482  34.672  26.874  1.00  0.00    -0.262 NA
ATOM     33  H   UNL     1     -48.557  36.344  27.625  1.00  0.00     0.084 H 
ATOM     34  C   UNL     1     -48.082  32.966  25.858  1.00  0.00     0.066 A 
ATOM     35  H   UNL     1     -45.951  33.423  25.894  1.00  0.00     0.065 H 
ATOM     36  C   UNL     1     -49.314  33.477  26.250  1.00  0.00     0.051 A 
ATOM     37  H   UNL     1     -50.255  32.968  26.074  1.00  0.00     0.086 H 
BRANCH  34  38
ATOM     38  N   UNL     1     -47.957  31.707  25.188  1.00  0.00    -0.299 N 
ATOM     39  C   UNL     1     -48.592  30.534  25.574  1.00  0.00     0.018 A 
ATOM     40  C   UNL     1     -47.195  31.407  24.059  1.00  0.00     0.150 A 
ATOM     41  C   UNL     1     -48.245  29.493  24.730  1.00  0.00     0.012 A 
ATOM     42  H   UNL     1     -49.233  30.511  26.442  1.00  0.00     0.083 H 
ATOM     43  C   UNL     1     -47.350  30.055  23.766  1.00  0.00     0.067 A 
ATOM     44  N   UNL     1     -46.443  32.267  23.344  1.00  0.00    -0.218 NA
ATOM     45  C   UNL     1     -46.641  29.558  22.657  1.00  0.00     0.136 A 
ATOM     46  C   UNL     1     -45.827  31.683  22.307  1.00  0.00     0.120 A 
ATOM     47  N   UNL     1     -45.877  30.395  21.936  1.00  0.00    -0.219 NA
ATOM     48  H   UNL     1     -45.209  32.330  21.692  1.00  0.00     0.106 H 
BRANCH  41  49
ATOM     49  C   UNL     1     -48.698  28.057  24.769  1.00  0.00     0.085 C 
ATOM     50  C   UNL     1     -49.489  27.635  26.000  1.00  0.00    -0.020 C 
ATOM     51  O   UNL     1     -47.548  27.177  24.733  1.00  0.00    -0.373 OA
ATOM     52  H   UNL     1     -49.293  27.868  23.868  1.00  0.00     0.066 H 
ATOM     53  C   UNL     1     -48.405  27.184  26.948  1.00  0.00    -0.027 C 
ATOM     54  H   UNL     1     -50.114  26.768  25.748  1.00  0.00     0.030 H 
ATOM     55  H   UNL     1     -50.148  28.399  26.419  1.00  0.00     0.030 H 
ATOM     56  C   UNL     1     -47.427  26.521  26.004  1.00  0.00     0.048 C 
ATOM     57  H   UNL     1     -48.759  26.510  27.732  1.00  0.00     0.029 H 
ATOM     58  H   UNL     1     -47.937  28.050  27.428  1.00  0.00     0.029 H 
ATOM     59  H   UNL     1     -47.673  25.464  25.856  1.00  0.00     0.057 H 
ATOM     60  H   UNL     1     -46.393  26.590  26.355  1.00  0.00     0.057 H 
ENDBRANCH  41  49
BRANCH  45  61
ATOM     61  N   UNL     1     -46.664  28.225  22.265  1.00  0.00    -0.383 N 
ATOM     62  H   UNL     1     -47.117  28.134  21.363  1.00  0.00     0.158 HD
ATOM     63  H   UNL     1     -45.748  27.782  22.339  1.00  0.00     0.158 HD
ENDBRANCH  45  61
ENDBRANCH  34  38
ENDBRANCH  26  29
ENDBRANCH   1  26
TORSDOF 9
ENDMDL
MODEL 4
REMARK VINA RESULT:      -9.2      2.826     11.889
REMARK SMILES CCNc1ccc2ccc(OCc3cncc(-n4cc([C@@H]5CCCO5)c5c(N)ncnc54)c3)cc2n1
REMARK SMILES IDX 11 1 10 2 4 3 5 4 36 5 6 6 35 8 7 9 34 11 8 12 9 14 3 17
REMARK SMILES IDX 2 19 1 22 12 26 13 29 14 30 33 31 15 32 17 34 16 36 18 38
REMARK SMILES IDX 19 39 32 40 20 41 26 43 31 44 27 45 30 46 29 47 21 49 22 50
REMARK SMILES IDX 25 51 23 53 24 56 28 61
REMARK H PARENT 5 7 6 10 34 13 8 15 9 16 3 18 2 20 2 21 1 23 1 24 1 25 12 27
REMARK H PARENT 12 28 14 33 33 35 16 37 19 42 30 48 21 52 22 54 22 55 23 57
REMARK H PARENT 23 58 24 59 24 60 28 62 28 63
REMARK Flexibility Score: inf
ROOT
ATOM      1  O   UNL     1     -46.417  34.763  26.803  1.00  0.00    -0.489 OA
ENDROOT
BRANCH   1   2
ATOM      2  C   UNL     1     -47.147  33.836  26.111  1.00  0.00     0.122 A 
ATOM      3  C   UNL     1     -46.810  30.546  22.677  1.00  0.00     0.126 A 
ATOM      4  C   UNL     1     -48.151  30.204  22.812  1.00  0.00    -0.019 A 
ATOM      5  N   UNL     1     -46.249  31.510  23.434  1.00  0.00    -0.231 NA
ATOM      6  C   UNL     1     -48.931  30.856  23.762  1.00  0.00    -0.049 A 
ATOM      7  H   UNL     1     -48.592  29.446  22.174  1.00  0.00     0.066 H 
ATOM      8  C   UNL     1     -46.998  32.149  24.353  1.00  0.00     0.076 A 
ATOM      9  C   UNL     1     -48.356  31.850  24.557  1.00  0.00     0.001 A 
ATOM     10  H   UNL     1     -49.979  30.589  23.868  1.00  0.00     0.063 H 
ATOM     11  C   UNL     1     -46.423  33.139  25.137  1.00  0.00     0.007 A 
ATOM     12  C   UNL     1     -49.095  32.540  25.532  1.00  0.00    -0.049 A 
ATOM     13  H   UNL     1     -45.372  33.375  24.983  1.00  0.00     0.069 H 
ATOM     14  C   UNL     1     -48.490  33.530  26.309  1.00  0.00    -0.019 A 
ATOM     15  H   UNL     1     -50.145  32.309  25.695  1.00  0.00     0.063 H 
ATOM     16  H   UNL     1     -49.095  34.028  27.057  1.00  0.00     0.066 H 
BRANCH   3  17
ATOM     17  N   UNL     1     -46.061  29.884  21.687  1.00  0.00    -0.370 N 
ATOM     18  H   UNL     1     -46.628  29.143  21.290  1.00  0.00     0.162 HD
BRANCH  17  19
ATOM     19  C   UNL     1     -44.761  29.399  22.142  1.00  0.00     0.013 C 
ATOM     20  H   UNL     1     -44.316  30.097  22.861  1.00  0.00     0.049 H 
ATOM     21  H   UNL     1     -44.074  29.280  21.295  1.00  0.00     0.049 H 
BRANCH  19  22
ATOM     22  C   UNL     1     -44.940  28.046  22.813  1.00  0.00    -0.048 C 
ATOM     23  H   UNL     1     -45.870  27.567  22.490  1.00  0.00     0.025 H 
ATOM     24  H   UNL     1     -44.977  28.148  23.902  1.00  0.00     0.025 H 
ATOM     25  H   UNL     1     -44.107  27.382  22.560  1.00  0.00     0.025 H 
ENDBRANCH  19  22
ENDBRANCH  17  19
ENDBRANCH   3  17
ENDBRANCH   1   2
BRANCH   1  26
ATOM     26  C   UNL     1     -46.973  35.340  27.988  1.00  0.00     0.115 C 
ATOM     27  H   UNL     1     -46.396  35.043  28.871  1.00  0.00     0.076 H 
ATOM     28  H   UNL     1     -47.969  34.897  28.108  1.00  0.00     0.076 H 
BRANCH  26  29
ATOM     29  C   UNL     1     -47.152  36.835  27.901  1.00  0.00     0.010 A 
ATOM     30  C   UNL     1     -48.418  37.390  28.027  1.00  0.00     0.034 A 
ATOM     31  C   UNL     1     -46.088  37.711  27.644  1.00  0.00    -0.028 A 
ATOM     32  N   UNL     1     -48.671  38.711  27.948  1.00  0.00    -0.262 NA
ATOM     33  H   UNL     1     -49.295  36.773  28.204  1.00  0.00     0.084 H 
ATOM     34  C   UNL     1     -46.303  39.095  27.561  1.00  0.00     0.066 A 
ATOM     35  H   UNL     1     -45.103  37.276  27.505  1.00  0.00     0.065 H 
ATOM     36  C   UNL     1     -47.612  39.533  27.720  1.00  0.00     0.051 A 
ATOM     37  H   UNL     1     -47.900  40.577  27.692  1.00  0.00     0.086 H 
BRANCH  34  38
ATOM     38  N   UNL     1     -45.218  40.001  27.338  1.00  0.00    -0.299 N 
ATOM     39  C   UNL     1     -45.094  40.838  26.237  1.00  0.00     0.018 A 
ATOM     40  C   UNL     1     -44.099  40.217  28.142  1.00  0.00     0.150 A 
ATOM     41  C   UNL     1     -43.922  41.571  26.313  1.00  0.00     0.012 A 
ATOM     42  H   UNL     1     -45.840  40.841  25.456  1.00  0.00     0.083 H 
ATOM     43  C   UNL     1     -43.288  41.168  27.529  1.00  0.00     0.067 A 
ATOM     44  N   UNL     1     -43.834  39.630  29.326  1.00  0.00    -0.218 NA
ATOM     45  C   UNL     1     -42.095  41.511  28.192  1.00  0.00     0.136 A 
ATOM     46  C   UNL     1     -42.680  40.043  29.867  1.00  0.00     0.120 A 
ATOM     47  N   UNL     1     -41.806  40.929  29.368  1.00  0.00    -0.219 NA
ATOM     48  H   UNL     1     -42.417  39.605  30.825  1.00  0.00     0.106 H 
BRANCH  41  49
ATOM     49  C   UNL     1     -43.389  42.598  25.348  1.00  0.00     0.085 C 
ATOM     50  C   UNL     1     -43.473  44.051  25.798  1.00  0.00    -0.020 C 
ATOM     51  O   UNL     1     -44.132  42.540  24.107  1.00  0.00    -0.373 OA
ATOM     52  H   UNL     1     -42.346  42.342  25.127  1.00  0.00     0.066 H 
ATOM     53  C   UNL     1     -44.833  44.472  25.295  1.00  0.00    -0.027 C 
ATOM     54  H   UNL     1     -42.710  44.638  25.270  1.00  0.00     0.030 H 
ATOM     55  H   UNL     1     -43.330  44.219  26.868  1.00  0.00     0.030 H 
ATOM     56  C   UNL     1     -44.915  43.736  23.977  1.00  0.00     0.048 C 
ATOM     57  H   UNL     1     -44.944  45.553  25.184  1.00  0.00     0.029 H 
ATOM     58  H   UNL     1     -45.615  44.116  25.975  1.00  0.00     0.029 H 
ATOM     59  H   UNL     1     -44.482  44.329  23.165  1.00  0.00     0.057 H 
ATOM     60  H   UNL     1     -45.942  43.475  23.706  1.00  0.00     0.057 H 
ENDBRANCH  41  49
BRANCH  45  61
ATOM     61  N   UNL     1     -41.167  42.412  27.685  1.00  0.00    -0.383 N 
ATOM     62  H   UNL     1     -40.721  42.916  28.443  1.00  0.00     0.158 HD
ATOM     63  H   UNL     1     -40.530  41.980  27.015  1.00  0.00     0.158 HD
ENDBRANCH  45  61
ENDBRANCH  34  38
ENDBRANCH  26  29
ENDBRANCH   1  26
TORSDOF 9
ENDMDL
MODEL 5
REMARK VINA RESULT:      -9.2      1.679      3.198
REMARK SMILES CCNc1ccc2ccc(OCc3cncc(-n4cc([C@@H]5CCCO5)c5c(N)ncnc54)c3)cc2n1
REMARK SMILES IDX 11 1 10 2 4 3 5 4 36 5 6 6 35 8 7 9 34 11 8 12 9 14 3 17
REMARK SMILES IDX 2 19 1 22 12 26 13 29 14 30 33 31 15 32 17 34 16 36 18 38
REMARK SMILES IDX 19 39 32 40 20 41 26 43 31 44 27 45 30 46 29 47 21 49 22 50
REMARK SMILES IDX 25 51 23 53 24 56 28 61
REMARK H PARENT 5 7 6 10 34 13 8 15 9 16 3 18 2 20 2 21 1 23 1 24 1 25 12 27
REMARK H PARENT 12 28 14 33 33 35 16 37 19 42 30 48 21 52 22 54 22 55 23 57
REMARK H PARENT 23 58 24 59 24 60 28 62 28 63
REMARK Flexibility Score: inf
ROOT
ATOM      1  O   UNL     1     -48.160  36.404  26.986  1.00  0.00    -0.489 OA
ENDROOT
BRANCH   1   2
ATOM      2  C   UNL     1     -47.205  36.774  27.892  1.00  0.00     0.122 A 
ATOM      3  C   UNL     1     -43.758  39.975  28.666  1.00  0.00     0.126 A 
ATOM      4  C   UNL     1     -43.456  39.418  29.904  1.00  0.00    -0.019 A 
ATOM      5  N   UNL     1     -44.728  39.466  27.881  1.00  0.00    -0.231 NA
ATOM      6  C   UNL     1     -44.184  38.319  30.354  1.00  0.00    -0.049 A 
ATOM      7  H   UNL     1     -42.653  39.823  30.509  1.00  0.00     0.066 H 
ATOM      8  C   UNL     1     -45.433  38.401  28.308  1.00  0.00     0.076 A 
ATOM      9  C   UNL     1     -45.196  37.790  29.551  1.00  0.00     0.001 A 
ATOM     10  H   UNL     1     -43.948  37.883  31.321  1.00  0.00     0.063 H 
ATOM     11  C   UNL     1     -46.435  37.877  27.504  1.00  0.00     0.007 A 
ATOM     12  C   UNL     1     -45.962  36.684  29.955  1.00  0.00    -0.049 A 
ATOM     13  H   UNL     1     -46.623  38.345  26.540  1.00  0.00     0.069 H 
ATOM     14  C   UNL     1     -46.966  36.179  29.127  1.00  0.00    -0.019 A 
ATOM     15  H   UNL     1     -45.783  36.212  30.918  1.00  0.00     0.063 H 
ATOM     16  H   UNL     1     -47.540  35.332  29.485  1.00  0.00     0.066 H 
BRANCH   3  17
ATOM     17  N   UNL     1     -42.984  41.067  28.233  1.00  0.00    -0.370 N 
ATOM     18  H   UNL     1     -43.140  41.848  28.863  1.00  0.00     0.162 HD
BRANCH  17  19
ATOM     19  C   UNL     1     -43.193  41.436  26.836  1.00  0.00     0.013 C 
ATOM     20  H   UNL     1     -43.999  40.838  26.394  1.00  0.00     0.049 H 
ATOM     21  H   UNL     1     -42.277  41.280  26.253  1.00  0.00     0.049 H 
BRANCH  19  22
ATOM     22  C   UNL     1     -43.570  42.907  26.759  1.00  0.00    -0.048 C 
ATOM     23  H   UNL     1     -44.508  43.101  27.290  1.00  0.00     0.025 H 
ATOM     24  H   UNL     1     -43.701  43.227  25.720  1.00  0.00     0.025 H 
ATOM     25  H   UNL     1     -42.787  43.525  27.211  1.00  0.00     0.025 H 
ENDBRANCH  19  22
ENDBRANCH  17  19
ENDBRANCH   3  17
ENDBRANCH   1   2
BRANCH   1  26
ATOM     26  C   UNL     1     -48.745  35.102  27.087  1.00  0.00     0.115 C 
ATOM     27  H   UNL     1     -49.826  35.148  26.906  1.00  0.00     0.076 H 
ATOM     28  H   UNL     1     -48.621  34.789  28.130  1.00  0.00     0.076 H 
BRANCH  26  29
ATOM     29  C   UNL     1     -48.066  34.070  26.222  1.00  0.00     0.010 A 
ATOM     30  C   UNL     1     -46.704  34.163  25.971  1.00  0.00     0.034 A 
ATOM     31  C   UNL     1     -48.765  33.024  25.603  1.00  0.00    -0.028 A 
ATOM     32  N   UNL     1     -46.021  33.295  25.199  1.00  0.00    -0.262 NA
ATOM     33  H   UNL     1     -46.100  34.960  26.397  1.00  0.00     0.084 H 
ATOM     34  C   UNL     1     -48.094  32.092  24.797  1.00  0.00     0.066 A 
ATOM     35  H   UNL     1     -49.837  32.972  25.765  1.00  0.00     0.065 H 
ATOM     36  C   UNL     1     -46.726  32.281  24.632  1.00  0.00     0.051 A 
ATOM     37  H   UNL     1     -46.099  31.620  24.047  1.00  0.00     0.086 H 
BRANCH  34  38
ATOM     38  N   UNL     1     -48.790  30.997  24.192  1.00  0.00    -0.299 N 
ATOM     39  C   UNL     1     -49.411  31.039  22.951  1.00  0.00     0.018 A 
ATOM     40  C   UNL     1     -48.991  29.717  24.707  1.00  0.00     0.150 A 
ATOM     41  C   UNL     1     -50.011  29.824  22.667  1.00  0.00     0.012 A 
ATOM     42  H   UNL     1     -49.405  31.941  22.358  1.00  0.00     0.083 H 
ATOM     43  C   UNL     1     -49.744  28.984  23.794  1.00  0.00     0.067 A 
ATOM     44  N   UNL     1     -48.529  29.240  25.880  1.00  0.00    -0.218 NA
ATOM     45  C   UNL     1     -50.062  27.660  24.146  1.00  0.00     0.136 A 
ATOM     46  C   UNL     1     -48.884  27.967  26.101  1.00  0.00     0.120 A 
ATOM     47  N   UNL     1     -49.620  27.167  25.315  1.00  0.00    -0.219 NA
ATOM     48  H   UNL     1     -48.536  27.528  27.031  1.00  0.00     0.106 H 
BRANCH  41  49
ATOM     49  C   UNL     1     -50.784  29.419  21.439  1.00  0.00     0.085 C 
ATOM     50  C   UNL     1     -50.006  28.652  20.378  1.00  0.00    -0.020 C 
ATOM     51  O   UNL     1     -51.289  30.597  20.765  1.00  0.00    -0.373 OA
ATOM     52  H   UNL     1     -51.645  28.824  21.764  1.00  0.00     0.066 H 
ATOM     53  C   UNL     1     -49.456  29.758  19.510  1.00  0.00    -0.027 C 
ATOM     54  H   UNL     1     -50.705  28.054  19.778  1.00  0.00     0.030 H 
ATOM     55  H   UNL     1     -49.240  27.971  20.758  1.00  0.00     0.030 H 
ATOM     56  C   UNL     1     -50.597  30.750  19.516  1.00  0.00     0.048 C 
ATOM     57  H   UNL     1     -49.184  29.432  18.503  1.00  0.00     0.029 H 
ATOM     58  H   UNL     1     -48.569  30.200  19.977  1.00  0.00     0.029 H 
ATOM     59  H   UNL     1     -51.311  30.538  18.714  1.00  0.00     0.057 H 
ATOM     60  H   UNL     1     -50.254  31.784  19.411  1.00  0.00     0.057 H 
ENDBRANCH  41  49
BRANCH  45  61
ATOM     61  N   UNL     1     -50.837  26.820  23.356  1.00  0.00    -0.383 N 
ATOM     62  H   UNL     1     -51.637  27.324  22.993  1.00  0.00     0.158 HD
ATOM     63  H   UNL     1     -50.284  26.320  22.660  1.00  0.00     0.158 HD
ENDBRANCH  45  61
ENDBRANCH  34  38
ENDBRANCH  26  29
ENDBRANCH   1  26
TORSDOF 9
ENDMDL
MODEL 6
REMARK VINA RESULT:      -9.1      2.357      2.803
REMARK SMILES CCNc1ccc2ccc(OCc3cncc(-n4cc([C@@H]5CCCO5)c5c(N)ncnc54)c3)cc2n1
REMARK SMILES IDX 11 1 10 2 4 3 5 4 36 5 6 6 35 8 7 9 34 11 8 12 9 14 3 17
REMARK SMILES IDX 2 19 1 22 12 26 13 29 14 30 33 31 15 32 17 34 16 36 18 38
REMARK SMILES IDX 19 39 32 40 20 41 26 43 31 44 27 45 30 46 29 47 21 49 22 50
REMARK SMILES IDX 25 51 23 53 24 56 28 61
REMARK H PARENT 5 7 6 10 34 13 8 15 9 16 3 18 2 20 2 21 1 23 1 24 1 25 12 27
REMARK H PARENT 12 28 14 33 33 35 16 37 19 42 30 48 21 52 22 54 22 55 23 57
REMARK H PARENT 23 58 24 59 24 60 28 62 28 63
REMARK Flexibility Score: inf
ROOT
ATOM      1  O   UNL     1     -47.788  36.468  28.713  1.00  0.00    -0.489 OA
ENDROOT
BRANCH   1   2
ATOM      2  C   UNL     1     -46.665  37.173  29.047  1.00  0.00     0.122 A 
ATOM      3  C   UNL     1     -43.882  40.766  27.607  1.00  0.00     0.126 A 
ATOM      4  C   UNL     1     -43.050  40.623  28.712  1.00  0.00    -0.019 A 
ATOM      5  N   UNL     1     -44.947  39.963  27.418  1.00  0.00    -0.231 NA
ATOM      6  C   UNL     1     -43.331  39.641  29.658  1.00  0.00    -0.049 A 
ATOM      7  H   UNL     1     -42.180  41.260  28.832  1.00  0.00     0.066 H 
ATOM      8  C   UNL     1     -45.224  39.007  28.327  1.00  0.00     0.076 A 
ATOM      9  C   UNL     1     -44.438  38.810  29.475  1.00  0.00     0.001 A 
ATOM     10  H   UNL     1     -42.681  39.529  30.521  1.00  0.00     0.063 H 
ATOM     11  C   UNL     1     -46.322  38.181  28.138  1.00  0.00     0.007 A 
ATOM     12  C   UNL     1     -44.771  37.804  30.397  1.00  0.00    -0.049 A 
ATOM     13  H   UNL     1     -46.935  38.328  27.250  1.00  0.00     0.069 H 
ATOM     14  C   UNL     1     -45.883  36.988  30.183  1.00  0.00    -0.019 A 
ATOM     15  H   UNL     1     -44.166  37.651  31.288  1.00  0.00     0.063 H 
ATOM     16  H   UNL     1     -46.109  36.233  30.927  1.00  0.00     0.066 H 
BRANCH   3  17
ATOM     17  N   UNL     1     -43.549  41.751  26.659  1.00  0.00    -0.370 N 
ATOM     18  H   UNL     1     -42.817  41.390  26.056  1.00  0.00     0.162 HD
BRANCH  17  19
ATOM     19  C   UNL     1     -43.200  43.046  27.236  1.00  0.00     0.013 C 
ATOM     20  H   UNL     1     -42.119  43.114  27.410  1.00  0.00     0.049 H 
ATOM     21  H   UNL     1     -43.720  43.199  28.189  1.00  0.00     0.049 H 
BRANCH  19  22
ATOM     22  C   UNL     1     -43.617  44.149  26.275  1.00  0.00    -0.048 C 
ATOM     23  H   UNL     1     -43.063  45.072  26.472  1.00  0.00     0.025 H 
ATOM     24  H   UNL     1     -44.684  44.372  26.370  1.00  0.00     0.025 H 
ATOM     25  H   UNL     1     -43.421  43.847  25.241  1.00  0.00     0.025 H 
ENDBRANCH  19  22
ENDBRANCH  17  19
ENDBRANCH   3  17
ENDBRANCH   1   2
BRANCH   1  26
ATOM     26  C   UNL     1     -48.005  36.116  27.343  1.00  0.00     0.115 C 
ATOM     27  H   UNL     1     -47.514  36.836  26.677  1.00  0.00     0.076 H 
ATOM     28  H   UNL     1     -49.082  36.218  27.165  1.00  0.00     0.076 H 
BRANCH  26  29
ATOM     29  C   UNL     1     -47.627  34.693  27.021  1.00  0.00     0.010 A 
ATOM     30  C   UNL     1     -46.728  34.014  27.832  1.00  0.00     0.034 A 
ATOM     31  C   UNL     1     -48.110  34.019  25.890  1.00  0.00    -0.028 A 
ATOM     32  N   UNL     1     -46.323  32.748  27.610  1.00  0.00    -0.262 NA
ATOM     33  H   UNL     1     -46.293  34.479  28.713  1.00  0.00     0.084 H 
ATOM     34  C   UNL     1     -47.722  32.697  25.624  1.00  0.00     0.066 A 
ATOM     35  H   UNL     1     -48.783  34.561  25.232  1.00  0.00     0.065 H 
ATOM     36  C   UNL     1     -46.828  32.118  26.517  1.00  0.00     0.051 A 
ATOM     37  H   UNL     1     -46.468  31.100  26.426  1.00  0.00     0.086 H 
BRANCH  34  38
ATOM     38  N   UNL     1     -48.240  31.986  24.494  1.00  0.00    -0.299 N 
ATOM     39  C   UNL     1     -49.577  31.665  24.301  1.00  0.00     0.018 A 
ATOM     40  C   UNL     1     -47.536  31.481  23.401  1.00  0.00     0.150 A 
ATOM     41  C   UNL     1     -49.741  30.959  23.122  1.00  0.00     0.012 A 
ATOM     42  H   UNL     1     -50.324  31.941  25.030  1.00  0.00     0.083 H 
ATOM     43  C   UNL     1     -48.434  30.840  22.553  1.00  0.00     0.067 A 
ATOM     44  N   UNL     1     -46.213  31.596  23.174  1.00  0.00    -0.218 NA
ATOM     45  C   UNL     1     -47.904  30.250  21.391  1.00  0.00     0.136 A 
ATOM     46  C   UNL     1     -45.827  31.007  22.034  1.00  0.00     0.120 A 
ATOM     47  N   UNL     1     -46.586  30.344  21.149  1.00  0.00    -0.219 NA
ATOM     48  H   UNL     1     -44.769  31.072  21.797  1.00  0.00     0.106 H 
BRANCH  41  49
ATOM     49  C   UNL     1     -51.011  30.418  22.516  1.00  0.00     0.085 C 
ATOM     50  C   UNL     1     -52.235  30.403  23.422  1.00  0.00    -0.020 C 
ATOM     51  O   UNL     1     -50.816  29.041  22.114  1.00  0.00    -0.373 OA
ATOM     52  H   UNL     1     -51.228  31.003  21.615  1.00  0.00     0.066 H 
ATOM     53  C   UNL     1     -52.131  29.054  24.091  1.00  0.00    -0.027 C 
ATOM     54  H   UNL     1     -53.142  30.417  22.804  1.00  0.00     0.030 H 
ATOM     55  H   UNL     1     -52.308  31.236  24.125  1.00  0.00     0.030 H 
ATOM     56  C   UNL     1     -51.600  28.193  22.967  1.00  0.00     0.048 C 
ATOM     57  H   UNL     1     -53.080  28.688  24.492  1.00  0.00     0.029 H 
ATOM     58  H   UNL     1     -51.407  29.092  24.911  1.00  0.00     0.029 H 
ATOM     59  H   UNL     1     -52.416  27.781  22.364  1.00  0.00     0.057 H 
ATOM     60  H   UNL     1     -50.984  27.365  23.328  1.00  0.00     0.057 H 
ENDBRANCH  41  49
BRANCH  45  61
ATOM     61  N   UNL     1     -48.668  29.544  20.471  1.00  0.00    -0.383 N 
ATOM     62  H   UNL     1     -49.577  29.980  20.364  1.00  0.00     0.158 HD
ATOM     63  H   UNL     1     -48.165  29.367  19.601  1.00  0.00     0.158 HD
ENDBRANCH  45  61
ENDBRANCH  34  38
ENDBRANCH  26  29
ENDBRANCH   1  26
TORSDOF 9
ENDMDL
MODEL 7
REMARK VINA RESULT:      -9.1      3.101     11.732
REMARK SMILES CCNc1ccc2ccc(OCc3cncc(-n4cc([C@@H]5CCCO5)c5c(N)ncnc54)c3)cc2n1
REMARK SMILES IDX 11 1 10 2 4 3 5 4 36 5 6 6 35 8 7 9 34 11 8 12 9 14 3 17
REMARK SMILES IDX 2 19 1 22 12 26 13 29 14 30 33 31 15 32 17 34 16 36 18 38
REMARK SMILES IDX 19 39 32 40 20 41 26 43 31 44 27 45 30 46 29 47 21 49 22 50
REMARK SMILES IDX 25 51 23 53 24 56 28 61
REMARK H PARENT 5 7 6 10 34 13 8 15 9 16 3 18 2 20 2 21 1 23 1 24 1 25 12 27
REMARK H PARENT 12 28 14 33 33 35 16 37 19 42 30 48 21 52 22 54 22 55 23 57
REMARK H PARENT 23 58 24 59 24 60 28 62 28 63
REMARK Flexibility Score: inf
ROOT
ATOM      1  O   UNL     1     -47.643  33.219  26.947  1.00  0.00    -0.489 OA
ENDROOT
BRANCH   1   2
ATOM      2  C   UNL     1     -47.474  32.344  25.911  1.00  0.00     0.122 A 
ATOM      3  C   UNL     1     -49.161  28.282  24.070  1.00  0.00     0.126 A 
ATOM      4  C   UNL     1     -48.266  28.339  23.008  1.00  0.00    -0.019 A 
ATOM      5  N   UNL     1     -49.179  29.229  25.029  1.00  0.00    -0.231 NA
ATOM      6  C   UNL     1     -47.378  29.408  22.919  1.00  0.00    -0.049 A 
ATOM      7  H   UNL     1     -48.247  27.553  22.261  1.00  0.00     0.066 H 
ATOM      8  C   UNL     1     -48.320  30.264  24.952  1.00  0.00     0.076 A 
ATOM      9  C   UNL     1     -47.394  30.398  23.903  1.00  0.00     0.001 A 
ATOM     10  H   UNL     1     -46.678  29.452  22.089  1.00  0.00     0.063 H 
ATOM     11  C   UNL     1     -48.338  31.242  25.935  1.00  0.00     0.007 A 
ATOM     12  C   UNL     1     -46.523  31.498  23.863  1.00  0.00    -0.049 A 
ATOM     13  H   UNL     1     -49.052  31.144  26.751  1.00  0.00     0.069 H 
ATOM     14  C   UNL     1     -46.564  32.470  24.865  1.00  0.00    -0.019 A 
ATOM     15  H   UNL     1     -45.808  31.607  23.051  1.00  0.00     0.063 H 
ATOM     16  H   UNL     1     -45.881  33.308  24.787  1.00  0.00     0.066 H 
BRANCH   3  17
ATOM     17  N   UNL     1     -50.024  27.174  24.141  1.00  0.00    -0.370 N 
ATOM     18  H   UNL     1     -50.807  27.329  23.513  1.00  0.00     0.162 HD
BRANCH  17  19
ATOM     19  C   UNL     1     -50.461  26.837  25.492  1.00  0.00     0.013 C 
ATOM     20  H   UNL     1     -51.509  26.513  25.492  1.00  0.00     0.049 H 
ATOM     21  H   UNL     1     -50.360  27.701  26.159  1.00  0.00     0.049 H 
BRANCH  19  22
ATOM     22  C   UNL     1     -49.595  25.707  26.030  1.00  0.00    -0.048 C 
ATOM     23  H   UNL     1     -48.818  25.431  25.310  1.00  0.00     0.025 H 
ATOM     24  H   UNL     1     -50.195  24.814  26.234  1.00  0.00     0.025 H 
ATOM     25  H   UNL     1     -49.107  26.012  26.961  1.00  0.00     0.025 H 
ENDBRANCH  19  22
ENDBRANCH  17  19
ENDBRANCH   3  17
ENDBRANCH   1   2
BRANCH   1  26
ATOM     26  C   UNL     1     -48.174  34.520  26.677  1.00  0.00     0.115 C 
ATOM     27  H   UNL     1     -49.201  34.605  27.054  1.00  0.00     0.076 H 
ATOM     28  H   UNL     1     -48.239  34.606  25.586  1.00  0.00     0.076 H 
BRANCH  26  29
ATOM     29  C   UNL     1     -47.293  35.642  27.166  1.00  0.00     0.010 A 
ATOM     30  C   UNL     1     -46.158  35.357  27.912  1.00  0.00     0.034 A 
ATOM     31  C   UNL     1     -47.595  36.993  26.944  1.00  0.00    -0.028 A 
ATOM     32  N   UNL     1     -45.325  36.296  28.401  1.00  0.00    -0.262 NA
ATOM     33  H   UNL     1     -45.872  34.334  28.145  1.00  0.00     0.084 H 
ATOM     34  C   UNL     1     -46.752  38.004  27.427  1.00  0.00     0.066 A 
ATOM     35  H   UNL     1     -48.505  37.220  26.396  1.00  0.00     0.065 H 
ATOM     36  C   UNL     1     -45.636  37.595  28.148  1.00  0.00     0.051 A 
ATOM     37  H   UNL     1     -44.905  38.281  28.558  1.00  0.00     0.086 H 
BRANCH  34  38
ATOM     38  N   UNL     1     -47.030  39.386  27.173  1.00  0.00    -0.299 N 
ATOM     39  C   UNL     1     -48.229  40.023  27.466  1.00  0.00     0.018 A 
ATOM     40  C   UNL     1     -46.193  40.338  26.592  1.00  0.00     0.150 A 
ATOM     41  C   UNL     1     -48.181  41.350  27.077  1.00  0.00     0.012 A 
ATOM     42  H   UNL     1     -49.049  39.481  27.913  1.00  0.00     0.083 H 
ATOM     43  C   UNL     1     -46.880  41.546  26.516  1.00  0.00     0.067 A 
ATOM     44  N   UNL     1     -44.923  40.149  26.183  1.00  0.00    -0.218 NA
ATOM     45  C   UNL     1     -46.197  42.633  25.941  1.00  0.00     0.136 A 
ATOM     46  C   UNL     1     -44.372  41.256  25.666  1.00  0.00     0.120 A 
ATOM     47  N   UNL     1     -44.933  42.465  25.517  1.00  0.00    -0.219 NA
ATOM     48  H   UNL     1     -43.346  41.163  25.323  1.00  0.00     0.106 H 
BRANCH  41  49
ATOM     49  C   UNL     1     -49.245  42.409  27.207  1.00  0.00     0.085 C 
ATOM     50  C   UNL     1     -50.501  42.010  27.970  1.00  0.00    -0.020 C 
ATOM     51  O   UNL     1     -49.707  42.806  25.893  1.00  0.00    -0.373 OA
ATOM     52  H   UNL     1     -48.790  43.286  27.682  1.00  0.00     0.066 H 
ATOM     53  C   UNL     1     -51.380  41.443  26.883  1.00  0.00    -0.027 C 
ATOM     54  H   UNL     1     -50.982  42.912  28.372  1.00  0.00     0.030 H 
ATOM     55  H   UNL     1     -50.343  41.326  28.808  1.00  0.00     0.030 H 
ATOM     56  C   UNL     1     -51.058  42.355  25.720  1.00  0.00     0.048 C 
ATOM     57  H   UNL     1     -52.443  41.438  27.135  1.00  0.00     0.029 H 
ATOM     58  H   UNL     1     -51.080  40.416  26.650  1.00  0.00     0.029 H 
ATOM     59  H   UNL     1     -51.705  43.239  25.719  1.00  0.00     0.057 H 
ATOM     60  H   UNL     1     -51.156  41.852  24.753  1.00  0.00     0.057 H 
ENDBRANCH  41  49
BRANCH  45  61
ATOM     61  N   UNL     1     -46.764  43.888  25.761  1.00  0.00    -0.383 N 
ATOM     62  H   UNL     1     -46.071  44.610  25.920  1.00  0.00     0.158 HD
ATOM     63  H   UNL     1     -47.276  43.961  24.881  1.00  0.00     0.158 HD
ENDBRANCH  45  61
ENDBRANCH  34  38
ENDBRANCH  26  29
ENDBRANCH   1  26
TORSDOF 9
ENDMDL
