MODEL 1
REMARK VINA RESULT:     -10.5      0.000      0.000
REMARK SMILES O=C(NCc1cc2[nH]c(CNCC34CC(C3)C4)cc2cn1)c1cc(=O)n2ccccc2n1
REMARK SMILES IDX 5 1 6 2 7 3 8 4 9 5 18 6 19 7 20 8 21 9 4 14 3 17 1 18 2 19
REMARK SMILES IDX 22 21 23 22 32 23 24 24 31 26 25 27 26 28 30 29 27 30 29 31
REMARK SMILES IDX 28 33 10 37 11 40 12 42 13 45 14 46 16 47 17 48 15 49
REMARK H PARENT 6 10 8 11 18 12 20 13 4 15 4 16 3 20 23 25 30 32 27 34 29 35
REMARK H PARENT 28 36 10 38 10 39 11 41 12 43 12 44 14 50 14 51 16 52 16 53
REMARK H PARENT 17 54 17 55 15 56
REMARK Flexibility Score: inf
ROOT
ATOM      1  C   UNL     1     -47.820  34.551  26.615  1.00  0.00     0.062 A 
ATOM      2  C   UNL     1     -48.823  33.625  26.327  1.00  0.00    -0.014 A 
ATOM      3  C   UNL     1     -48.474  32.612  25.438  1.00  0.00     0.049 A 
ATOM      4  N   UNL     1     -49.211  31.559  24.950  1.00  0.00    -0.357 N 
ATOM      5  C   UNL     1     -48.454  30.807  24.081  1.00  0.00     0.030 A 
ATOM      6  C   UNL     1     -47.202  31.387  24.025  1.00  0.00    -0.031 A 
ATOM      7  C   UNL     1     -47.205  32.531  24.870  1.00  0.00     0.018 A 
ATOM      8  C   UNL     1     -46.260  33.504  25.208  1.00  0.00     0.037 A 
ATOM      9  N   UNL     1     -46.576  34.506  26.068  1.00  0.00    -0.259 NA
ATOM     10  H   UNL     1     -49.813  33.701  26.762  1.00  0.00     0.067 H 
ATOM     11  H   UNL     1     -50.174  31.370  25.195  1.00  0.00     0.166 HD
ATOM     12  H   UNL     1     -46.371  31.031  23.429  1.00  0.00     0.065 H 
ATOM     13  H   UNL     1     -45.253  33.513  24.807  1.00  0.00     0.085 H 
ENDROOT
BRANCH   1  14
ATOM     14  C   UNL     1     -48.119  35.710  27.541  1.00  0.00     0.060 C 
ATOM     15  H   UNL     1     -49.081  36.165  27.285  1.00  0.00     0.056 H 
ATOM     16  H   UNL     1     -48.184  35.348  28.572  1.00  0.00     0.056 H 
BRANCH  14  17
ATOM     17  N   UNL     1     -47.070  36.703  27.505  1.00  0.00    -0.345 N 
ATOM     18  O   UNL     1     -46.561  36.626  29.743  1.00  0.00    -0.268 OA
ATOM     19  C   UNL     1     -46.430  37.138  28.637  1.00  0.00     0.270 C 
ATOM     20  H   UNL     1     -47.003  37.304  26.689  1.00  0.00     0.164 HD
BRANCH  19  21
ATOM     21  C   UNL     1     -45.556  38.342  28.382  1.00  0.00     0.136 A 
ATOM     22  C   UNL     1     -45.838  39.062  27.295  1.00  0.00     0.035 A 
ATOM     23  N   UNL     1     -44.534  38.617  29.262  1.00  0.00    -0.225 NA
ATOM     24  C   UNL     1     -45.008  40.238  27.004  1.00  0.00     0.258 A 
ATOM     25  H   UNL     1     -46.643  38.835  26.609  1.00  0.00     0.071 H 
ATOM     26  C   UNL     1     -43.801  39.657  29.001  1.00  0.00     0.140 A 
ATOM     27  O   UNL     1     -45.262  40.908  26.003  1.00  0.00    -0.269 OA
ATOM     28  N   UNL     1     -43.986  40.494  27.906  1.00  0.00    -0.268 N 
ATOM     29  C   UNL     1     -42.682  39.991  29.926  1.00  0.00    -0.019 A 
ATOM     30  C   UNL     1     -43.157  41.591  27.697  1.00  0.00     0.014 A 
ATOM     31  C   UNL     1     -41.911  41.058  29.684  1.00  0.00    -0.057 A 
ATOM     32  H   UNL     1     -42.530  39.344  30.782  1.00  0.00     0.066 H 
ATOM     33  C   UNL     1     -42.153  41.887  28.533  1.00  0.00    -0.045 A 
ATOM     34  H   UNL     1     -43.358  42.203  26.822  1.00  0.00     0.082 H 
ATOM     35  H   UNL     1     -41.091  41.318  30.346  1.00  0.00     0.062 H 
ATOM     36  H   UNL     1     -41.513  42.745  28.361  1.00  0.00     0.064 H 
ENDBRANCH  19  21
ENDBRANCH  14  17
ENDBRANCH   1  14
BRANCH   5  37
ATOM     37  C   UNL     1     -49.005  29.600  23.403  1.00  0.00     0.036 C 
ATOM     38  H   UNL     1     -48.353  29.335  22.563  1.00  0.00     0.049 H 
ATOM     39  H   UNL     1     -49.988  29.812  22.965  1.00  0.00     0.049 H 
BRANCH  37  40
ATOM     40  N   UNL     1     -49.067  28.456  24.308  1.00  0.00    -0.311 NA
ATOM     41  H   UNL     1     -49.787  27.811  23.990  1.00  0.00     0.123 HD
BRANCH  40  42
ATOM     42  C   UNL     1     -47.791  27.746  24.407  1.00  0.00     0.001 C 
ATOM     43  H   UNL     1     -47.529  27.282  23.451  1.00  0.00     0.043 H 
ATOM     44  H   UNL     1     -46.991  28.450  24.664  1.00  0.00     0.043 H 
BRANCH  42  45
ATOM     45  C   UNL     1     -47.882  26.700  25.460  1.00  0.00    -0.016 C 
ATOM     46  C   UNL     1     -47.798  26.833  27.033  1.00  0.00    -0.043 C 
ATOM     47  C   UNL     1     -49.036  25.660  25.756  1.00  0.00    -0.043 C 
ATOM     48  C   UNL     1     -46.920  25.463  25.662  1.00  0.00    -0.043 C 
ATOM     49  C   UNL     1     -47.954  25.287  26.825  1.00  0.00    -0.040 C 
ATOM     50  H   UNL     1     -46.848  27.184  27.449  1.00  0.00     0.028 H 
ATOM     51  H   UNL     1     -48.623  27.351  27.533  1.00  0.00     0.028 H 
ATOM     52  H   UNL     1     -49.984  26.062  26.129  1.00  0.00     0.028 H 
ATOM     53  H   UNL     1     -49.244  24.916  24.979  1.00  0.00     0.028 H 
ATOM     54  H   UNL     1     -45.886  25.681  25.946  1.00  0.00     0.028 H 
ATOM     55  H   UNL     1     -46.923  24.699  24.876  1.00  0.00     0.028 H 
ATOM     56  H   UNL     1     -47.993  24.512  27.574  1.00  0.00     0.030 H 
ENDBRANCH  42  45
ENDBRANCH  40  42
ENDBRANCH  37  40
ENDBRANCH   5  37
TORSDOF 7
ENDMDL
MODEL 2
REMARK VINA RESULT:     -10.0      3.049     11.330
REMARK SMILES O=C(NCc1cc2[nH]c(CNCC34CC(C3)C4)cc2cn1)c1cc(=O)n2ccccc2n1
REMARK SMILES IDX 5 1 6 2 7 3 8 4 9 5 18 6 19 7 20 8 21 9 4 14 3 17 1 18 2 19
REMARK SMILES IDX 22 21 23 22 32 23 24 24 31 26 25 27 26 28 30 29 27 30 29 31
REMARK SMILES IDX 28 33 10 37 11 40 12 42 13 45 14 46 16 47 17 48 15 49
REMARK H PARENT 6 10 8 11 18 12 20 13 4 15 4 16 3 20 23 25 30 32 27 34 29 35
REMARK H PARENT 28 36 10 38 10 39 11 41 12 43 12 44 14 50 14 51 16 52 16 53
REMARK H PARENT 17 54 17 55 15 56
REMARK Flexibility Score: inf
ROOT
ATOM      1  C   UNL     1     -46.789  33.502  25.513  1.00  0.00     0.062 A 
ATOM      2  C   UNL     1     -45.753  34.020  26.292  1.00  0.00    -0.014 A 
ATOM      3  C   UNL     1     -46.143  34.845  27.345  1.00  0.00     0.049 A 
ATOM      4  N   UNL     1     -45.392  35.506  28.287  1.00  0.00    -0.357 N 
ATOM      5  C   UNL     1     -46.208  36.219  29.136  1.00  0.00     0.030 A 
ATOM      6  C   UNL     1     -47.510  35.994  28.733  1.00  0.00    -0.031 A 
ATOM      7  C   UNL     1     -47.481  35.136  27.599  1.00  0.00     0.018 A 
ATOM      8  C   UNL     1     -48.456  34.581  26.765  1.00  0.00     0.037 A 
ATOM      9  N   UNL     1     -48.102  33.778  25.728  1.00  0.00    -0.259 NA
ATOM     10  H   UNL     1     -44.713  33.801  26.081  1.00  0.00     0.067 H 
ATOM     11  H   UNL     1     -44.383  35.474  28.342  1.00  0.00     0.166 HD
ATOM     12  H   UNL     1     -48.392  36.412  29.201  1.00  0.00     0.065 H 
ATOM     13  H   UNL     1     -49.516  34.761  26.894  1.00  0.00     0.085 H 
ENDROOT
BRANCH   1  14
ATOM     14  C   UNL     1     -46.459  32.628  24.323  1.00  0.00     0.060 C 
ATOM     15  H   UNL     1     -46.896  33.044  23.410  1.00  0.00     0.056 H 
ATOM     16  H   UNL     1     -45.373  32.590  24.186  1.00  0.00     0.056 H 
BRANCH  14  17
ATOM     17  N   UNL     1     -46.910  31.269  24.521  1.00  0.00    -0.345 N 
ATOM     18  O   UNL     1     -48.249  31.164  22.658  1.00  0.00    -0.268 OA
ATOM     19  C   UNL     1     -47.839  30.676  23.705  1.00  0.00     0.270 C 
ATOM     20  H   UNL     1     -46.772  30.843  25.433  1.00  0.00     0.164 HD
BRANCH  19  21
ATOM     21  C   UNL     1     -48.329  29.356  24.249  1.00  0.00     0.136 A 
ATOM     22  C   UNL     1     -49.651  29.176  24.270  1.00  0.00     0.035 A 
ATOM     23  N   UNL     1     -47.404  28.438  24.691  1.00  0.00    -0.225 NA
ATOM     24  C   UNL     1     -50.171  27.909  24.799  1.00  0.00     0.258 A 
ATOM     25  H   UNL     1     -50.369  29.906  23.922  1.00  0.00     0.071 H 
ATOM     26  C   UNL     1     -47.868  27.319  25.160  1.00  0.00     0.140 A 
ATOM     27  O   UNL     1     -51.390  27.734  24.822  1.00  0.00    -0.269 OA
ATOM     28  N   UNL     1     -49.220  27.000  25.237  1.00  0.00    -0.268 N 
ATOM     29  C   UNL     1     -46.903  26.296  25.651  1.00  0.00    -0.019 A 
ATOM     30  C   UNL     1     -49.636  25.777  25.752  1.00  0.00     0.014 A 
ATOM     31  C   UNL     1     -47.352  25.133  26.137  1.00  0.00    -0.057 A 
ATOM     32  H   UNL     1     -45.848  26.537  25.594  1.00  0.00     0.066 H 
ATOM     33  C   UNL     1     -48.763  24.861  26.191  1.00  0.00    -0.045 A 
ATOM     34  H   UNL     1     -50.708  25.593  25.783  1.00  0.00     0.082 H 
ATOM     35  H   UNL     1     -46.664  24.375  26.500  1.00  0.00     0.062 H 
ATOM     36  H   UNL     1     -49.100  23.911  26.591  1.00  0.00     0.064 H 
ENDBRANCH  19  21
ENDBRANCH  14  17
ENDBRANCH   1  14
BRANCH   5  37
ATOM     37  C   UNL     1     -45.655  37.031  30.257  1.00  0.00     0.036 C 
ATOM     38  H   UNL     1     -44.592  36.795  30.376  1.00  0.00     0.049 H 
ATOM     39  H   UNL     1     -46.131  36.759  31.207  1.00  0.00     0.049 H 
BRANCH  37  40
ATOM     40  N   UNL     1     -45.777  38.462  29.995  1.00  0.00    -0.311 NA
ATOM     41  H   UNL     1     -45.465  38.983  30.811  1.00  0.00     0.123 HD
BRANCH  40  42
ATOM     42  C   UNL     1     -45.006  38.888  28.826  1.00  0.00     0.001 C 
ATOM     43  H   UNL     1     -44.265  39.645  29.104  1.00  0.00     0.043 H 
ATOM     44  H   UNL     1     -44.464  38.034  28.404  1.00  0.00     0.043 H 
BRANCH  42  45
ATOM     45  C   UNL     1     -45.925  39.444  27.798  1.00  0.00    -0.016 C 
ATOM     46  C   UNL     1     -47.402  39.987  27.944  1.00  0.00    -0.043 C 
ATOM     47  C   UNL     1     -45.726  40.670  26.820  1.00  0.00    -0.043 C 
ATOM     48  C   UNL     1     -46.482  38.705  26.517  1.00  0.00    -0.043 C 
ATOM     49  C   UNL     1     -47.135  40.124  26.406  1.00  0.00    -0.040 C 
ATOM     50  H   UNL     1     -48.167  39.266  28.253  1.00  0.00     0.028 H 
ATOM     51  H   UNL     1     -47.536  40.916  28.508  1.00  0.00     0.028 H 
ATOM     52  H   UNL     1     -45.694  41.667  27.273  1.00  0.00     0.028 H 
ATOM     53  H   UNL     1     -44.924  40.587  26.079  1.00  0.00     0.028 H 
ATOM     54  H   UNL     1     -47.158  37.860  26.687  1.00  0.00     0.028 H 
ATOM     55  H   UNL     1     -45.754  38.433  25.746  1.00  0.00     0.028 H 
ATOM     56  H   UNL     1     -47.798  40.498  25.642  1.00  0.00     0.030 H 
ENDBRANCH  42  45
ENDBRANCH  40  42
ENDBRANCH  37  40
ENDBRANCH   5  37
TORSDOF 7
ENDMDL
MODEL 3
REMARK VINA RESULT:     -10.0      1.924      2.789
REMARK SMILES O=C(NCc1cc2[nH]c(CNCC34CC(C3)C4)cc2cn1)c1cc(=O)n2ccccc2n1
REMARK SMILES IDX 5 1 6 2 7 3 8 4 9 5 18 6 19 7 20 8 21 9 4 14 3 17 1 18 2 19
REMARK SMILES IDX 22 21 23 22 32 23 24 24 31 26 25 27 26 28 30 29 27 30 29 31
REMARK SMILES IDX 28 33 10 37 11 40 12 42 13 45 14 46 16 47 17 48 15 49
REMARK H PARENT 6 10 8 11 18 12 20 13 4 15 4 16 3 20 23 25 30 32 27 34 29 35
REMARK H PARENT 28 36 10 38 10 39 11 41 12 43 12 44 14 50 14 51 16 52 16 53
REMARK H PARENT 17 54 17 55 15 56
REMARK Flexibility Score: inf
ROOT
ATOM      1  C   UNL     1     -47.390  35.063  27.774  1.00  0.00     0.062 A 
ATOM      2  C   UNL     1     -46.287  34.481  27.148  1.00  0.00    -0.014 A 
ATOM      3  C   UNL     1     -46.578  33.591  26.116  1.00  0.00     0.049 A 
ATOM      4  N   UNL     1     -45.742  32.858  25.307  1.00  0.00    -0.357 N 
ATOM      5  C   UNL     1     -46.475  32.099  24.424  1.00  0.00     0.030 A 
ATOM      6  C   UNL     1     -47.808  32.366  24.667  1.00  0.00    -0.031 A 
ATOM      7  C   UNL     1     -47.886  33.299  25.738  1.00  0.00     0.018 A 
ATOM      8  C   UNL     1     -48.934  33.922  26.422  1.00  0.00     0.037 A 
ATOM      9  N   UNL     1     -48.678  34.789  27.435  1.00  0.00    -0.259 NA
ATOM     10  H   UNL     1     -45.272  34.702  27.456  1.00  0.00     0.067 H 
ATOM     11  H   UNL     1     -44.732  32.874  25.361  1.00  0.00     0.166 HD
ATOM     12  H   UNL     1     -48.643  31.928  24.135  1.00  0.00     0.065 H 
ATOM     13  H   UNL     1     -49.977  33.746  26.190  1.00  0.00     0.085 H 
ENDROOT
BRANCH   1  14
ATOM     14  C   UNL     1     -47.174  36.013  28.931  1.00  0.00     0.060 C 
ATOM     15  H   UNL     1     -48.117  36.494  29.213  1.00  0.00     0.056 H 
ATOM     16  H   UNL     1     -46.812  35.454  29.801  1.00  0.00     0.056 H 
BRANCH  14  17
ATOM     17  N   UNL     1     -46.177  37.011  28.621  1.00  0.00    -0.345 N 
ATOM     18  O   UNL     1     -45.356  37.232  30.755  1.00  0.00    -0.268 OA
ATOM     19  C   UNL     1     -45.399  37.599  29.587  1.00  0.00     0.270 C 
ATOM     20  H   UNL     1     -46.246  37.503  27.735  1.00  0.00     0.164 HD
BRANCH  19  21
ATOM     21  C   UNL     1     -44.613  38.774  29.059  1.00  0.00     0.136 A 
ATOM     22  C   UNL     1     -43.644  39.244  29.848  1.00  0.00     0.035 A 
ATOM     23  N   UNL     1     -44.938  39.289  27.825  1.00  0.00    -0.225 NA
ATOM     24  C   UNL     1     -42.859  40.392  29.377  1.00  0.00     0.258 A 
ATOM     25  H   UNL     1     -43.398  38.833  30.818  1.00  0.00     0.071 H 
ATOM     26  C   UNL     1     -44.243  40.305  27.413  1.00  0.00     0.140 A 
ATOM     27  O   UNL     1     -41.964  40.831  30.099  1.00  0.00    -0.269 OA
ATOM     28  N   UNL     1     -43.206  40.891  28.131  1.00  0.00    -0.268 N 
ATOM     29  C   UNL     1     -44.562  40.895  26.082  1.00  0.00    -0.019 A 
ATOM     30  C   UNL     1     -42.508  41.979  27.618  1.00  0.00     0.014 A 
ATOM     31  C   UNL     1     -43.861  41.942  25.630  1.00  0.00    -0.057 A 
ATOM     32  H   UNL     1     -45.368  40.445  25.516  1.00  0.00     0.066 H 
ATOM     33  C   UNL     1     -42.799  42.504  26.421  1.00  0.00    -0.045 A 
ATOM     34  H   UNL     1     -41.709  42.387  28.232  1.00  0.00     0.082 H 
ATOM     35  H   UNL     1     -44.078  42.386  24.664  1.00  0.00     0.062 H 
ATOM     36  H   UNL     1     -42.247  43.352  26.030  1.00  0.00     0.064 H 
ENDBRANCH  19  21
ENDBRANCH  14  17
ENDBRANCH   1  14
BRANCH   5  37
ATOM     37  C   UNL     1     -45.821  31.206  23.426  1.00  0.00     0.036 C 
ATOM     38  H   UNL     1     -44.735  31.250  23.569  1.00  0.00     0.049 H 
ATOM     39  H   UNL     1     -46.004  31.562  22.405  1.00  0.00     0.049 H 
BRANCH  37  40
ATOM     40  N   UNL     1     -46.244  29.819  23.587  1.00  0.00    -0.311 NA
ATOM     41  H   UNL     1     -46.521  29.659  24.553  1.00  0.00     0.123 HD
BRANCH  40  42
ATOM     42  C   UNL     1     -47.353  29.462  22.701  1.00  0.00     0.001 C 
ATOM     43  H   UNL     1     -47.864  30.359  22.337  1.00  0.00     0.043 H 
ATOM     44  H   UNL     1     -46.973  28.920  21.827  1.00  0.00     0.043 H 
BRANCH  42  45
ATOM     45  C   UNL     1     -48.318  28.600  23.432  1.00  0.00    -0.016 C 
ATOM     46  C   UNL     1     -49.448  28.991  24.466  1.00  0.00    -0.043 C 
ATOM     47  C   UNL     1     -49.388  27.578  22.873  1.00  0.00    -0.043 C 
ATOM     48  C   UNL     1     -47.981  27.451  24.464  1.00  0.00    -0.043 C 
ATOM     49  C   UNL     1     -49.546  27.428  24.424  1.00  0.00    -0.040 C 
ATOM     50  H   UNL     1     -49.122  29.443  25.409  1.00  0.00     0.028 H 
ATOM     51  H   UNL     1     -50.305  29.551  24.077  1.00  0.00     0.028 H 
ATOM     52  H   UNL     1     -50.238  27.998  22.326  1.00  0.00     0.028 H 
ATOM     53  H   UNL     1     -49.004  26.709  22.327  1.00  0.00     0.028 H 
ATOM     54  H   UNL     1     -47.513  27.753  25.407  1.00  0.00     0.028 H 
ATOM     55  H   UNL     1     -47.462  26.569  24.072  1.00  0.00     0.028 H 
ATOM     56  H   UNL     1     -50.220  26.785  24.968  1.00  0.00     0.030 H 
ENDBRANCH  42  45
ENDBRANCH  40  42
ENDBRANCH  37  40
ENDBRANCH   5  37
TORSDOF 7
ENDMDL
MODEL 4
REMARK VINA RESULT:      -9.9      1.406      2.095
REMARK SMILES O=C(NCc1cc2[nH]c(CNCC34CC(C3)C4)cc2cn1)c1cc(=O)n2ccccc2n1
REMARK SMILES IDX 5 1 6 2 7 3 8 4 9 5 18 6 19 7 20 8 21 9 4 14 3 17 1 18 2 19
REMARK SMILES IDX 22 21 23 22 32 23 24 24 31 26 25 27 26 28 30 29 27 30 29 31
REMARK SMILES IDX 28 33 10 37 11 40 12 42 13 45 14 46 16 47 17 48 15 49
REMARK H PARENT 6 10 8 11 18 12 20 13 4 15 4 16 3 20 23 25 30 32 27 34 29 35
REMARK H PARENT 28 36 10 38 10 39 11 41 12 43 12 44 14 50 14 51 16 52 16 53
REMARK H PARENT 17 54 17 55 15 56
REMARK Flexibility Score: inf
ROOT
ATOM      1  C   UNL     1     -47.951  33.628  25.944  1.00  0.00     0.062 A 
ATOM      2  C   UNL     1     -48.834  32.653  25.478  1.00  0.00    -0.014 A 
ATOM      3  C   UNL     1     -48.282  31.688  24.639  1.00  0.00     0.049 A 
ATOM      4  N   UNL     1     -48.861  30.607  24.018  1.00  0.00    -0.357 N 
ATOM      5  C   UNL     1     -47.927  29.927  23.270  1.00  0.00     0.030 A 
ATOM      6  C   UNL     1     -46.722  30.582  23.431  1.00  0.00    -0.031 A 
ATOM      7  C   UNL     1     -46.935  31.699  24.285  1.00  0.00     0.018 A 
ATOM      8  C   UNL     1     -46.121  32.717  24.791  1.00  0.00     0.037 A 
ATOM      9  N   UNL     1     -46.635  33.673  25.606  1.00  0.00    -0.259 NA
ATOM     10  H   UNL     1     -49.884  32.657  25.746  1.00  0.00     0.067 H 
ATOM     11  H   UNL     1     -49.837  30.354  24.098  1.00  0.00     0.166 HD
ATOM     12  H   UNL     1     -45.785  30.293  22.973  1.00  0.00     0.065 H 
ATOM     13  H   UNL     1     -45.065  32.797  24.561  1.00  0.00     0.085 H 
ENDROOT
BRANCH   1  14
ATOM     14  C   UNL     1     -48.469  34.740  26.829  1.00  0.00     0.060 C 
ATOM     15  H   UNL     1     -49.297  35.264  26.340  1.00  0.00     0.056 H 
ATOM     16  H   UNL     1     -48.849  34.316  27.765  1.00  0.00     0.056 H 
BRANCH  14  17
ATOM     17  N   UNL     1     -47.423  35.673  27.178  1.00  0.00    -0.345 N 
ATOM     18  O   UNL     1     -48.195  36.155  29.287  1.00  0.00    -0.268 OA
ATOM     19  C   UNL     1     -47.421  36.368  28.361  1.00  0.00     0.270 C 
ATOM     20  H   UNL     1     -46.842  36.047  26.433  1.00  0.00     0.164 HD
BRANCH  19  21
ATOM     21  C   UNL     1     -46.372  37.452  28.393  1.00  0.00     0.136 A 
ATOM     22  C   UNL     1     -45.598  37.499  29.479  1.00  0.00     0.035 A 
ATOM     23  N   UNL     1     -46.280  38.318  27.327  1.00  0.00    -0.225 NA
ATOM     24  C   UNL     1     -44.569  38.543  29.555  1.00  0.00     0.258 A 
ATOM     25  H   UNL     1     -45.680  36.814  30.313  1.00  0.00     0.071 H 
ATOM     26  C   UNL     1     -45.370  39.241  27.399  1.00  0.00     0.140 A 
ATOM     27  O   UNL     1     -43.851  38.593  30.554  1.00  0.00    -0.269 OA
ATOM     28  N   UNL     1     -44.497  39.401  28.469  1.00  0.00    -0.268 N 
ATOM     29  C   UNL     1     -45.237  40.201  26.266  1.00  0.00    -0.019 A 
ATOM     30  C   UNL     1     -43.547  40.417  28.468  1.00  0.00     0.014 A 
ATOM     31  C   UNL     1     -44.306  41.161  26.312  1.00  0.00    -0.057 A 
ATOM     32  H   UNL     1     -45.913  40.083  25.429  1.00  0.00     0.066 H 
ATOM     33  C   UNL     1     -43.431  41.276  27.448  1.00  0.00    -0.045 A 
ATOM     34  H   UNL     1     -42.896  40.485  29.337  1.00  0.00     0.082 H 
ATOM     35  H   UNL     1     -44.193  41.870  25.497  1.00  0.00     0.062 H 
ATOM     36  H   UNL     1     -42.686  42.064  27.458  1.00  0.00     0.064 H 
ENDBRANCH  19  21
ENDBRANCH  14  17
ENDBRANCH   1  14
BRANCH   5  37
ATOM     37  C   UNL     1     -48.284  28.709  22.489  1.00  0.00     0.036 C 
ATOM     38  H   UNL     1     -47.512  28.535  21.731  1.00  0.00     0.049 H 
ATOM     39  H   UNL     1     -49.219  28.859  21.936  1.00  0.00     0.049 H 
BRANCH  37  40
ATOM     40  N   UNL     1     -48.357  27.526  23.341  1.00  0.00    -0.311 NA
ATOM     41  H   UNL     1     -48.266  26.690  22.768  1.00  0.00     0.123 HD
BRANCH  40  42
ATOM     42  C   UNL     1     -47.328  27.515  24.381  1.00  0.00     0.001 C 
ATOM     43  H   UNL     1     -46.358  27.223  23.965  1.00  0.00     0.043 H 
ATOM     44  H   UNL     1     -47.216  28.519  24.807  1.00  0.00     0.043 H 
BRANCH  42  45
ATOM     45  C   UNL     1     -47.715  26.565  25.457  1.00  0.00    -0.016 C 
ATOM     46  C   UNL     1     -49.077  25.797  25.692  1.00  0.00    -0.043 C 
ATOM     47  C   UNL     1     -47.041  25.203  25.895  1.00  0.00    -0.043 C 
ATOM     48  C   UNL     1     -47.784  26.856  27.008  1.00  0.00    -0.043 C 
ATOM     49  C   UNL     1     -48.214  25.353  26.922  1.00  0.00    -0.040 C 
ATOM     50  H   UNL     1     -49.961  26.410  25.900  1.00  0.00     0.028 H 
ATOM     51  H   UNL     1     -49.341  25.021  24.967  1.00  0.00     0.028 H 
ATOM     52  H   UNL     1     -47.103  24.368  25.190  1.00  0.00     0.028 H 
ATOM     53  H   UNL     1     -46.022  25.261  26.293  1.00  0.00     0.028 H 
ATOM     54  H   UNL     1     -48.543  27.571  27.345  1.00  0.00     0.028 H 
ATOM     55  H   UNL     1     -46.837  27.073  27.515  1.00  0.00     0.028 H 
ATOM     56  H   UNL     1     -48.488  24.689  27.727  1.00  0.00     0.030 H 
ENDBRANCH  42  45
ENDBRANCH  40  42
ENDBRANCH  37  40
ENDBRANCH   5  37
TORSDOF 7
ENDMDL
MODEL 5
REMARK VINA RESULT:      -9.8      3.020      3.916
REMARK SMILES O=C(NCc1cc2[nH]c(CNCC34CC(C3)C4)cc2cn1)c1cc(=O)n2ccccc2n1
REMARK SMILES IDX 5 1 6 2 7 3 8 4 9 5 18 6 19 7 20 8 21 9 4 14 3 17 1 18 2 19
REMARK SMILES IDX 22 21 23 22 32 23 24 24 31 26 25 27 26 28 30 29 27 30 29 31
REMARK SMILES IDX 28 33 10 37 11 40 12 42 13 45 14 46 16 47 17 48 15 49
REMARK H PARENT 6 10 8 11 18 12 20 13 4 15 4 16 3 20 23 25 30 32 27 34 29 35
REMARK H PARENT 28 36 10 38 10 39 11 41 12 43 12 44 14 50 14 51 16 52 16 53
REMARK H PARENT 17 54 17 55 15 56
REMARK Flexibility Score: inf
ROOT
ATOM      1  C   UNL     1     -48.261  35.476  27.146  1.00  0.00     0.062 A 
ATOM      2  C   UNL     1     -47.075  35.163  26.480  1.00  0.00    -0.014 A 
ATOM      3  C   UNL     1     -47.104  34.007  25.704  1.00  0.00     0.049 A 
ATOM      4  N   UNL     1     -46.127  33.424  24.934  1.00  0.00    -0.357 N 
ATOM      5  C   UNL     1     -46.603  32.275  24.345  1.00  0.00     0.030 A 
ATOM      6  C   UNL     1     -47.919  32.131  24.740  1.00  0.00    -0.031 A 
ATOM      7  C   UNL     1     -48.244  33.213  25.603  1.00  0.00     0.018 A 
ATOM      8  C   UNL     1     -49.388  33.595  26.310  1.00  0.00     0.037 A 
ATOM      9  N   UNL     1     -49.385  34.714  27.078  1.00  0.00    -0.259 NA
ATOM     10  H   UNL     1     -46.188  35.778  26.574  1.00  0.00     0.067 H 
ATOM     11  H   UNL     1     -45.190  33.789  24.822  1.00  0.00     0.166 HD
ATOM     12  H   UNL     1     -48.578  31.324  24.444  1.00  0.00     0.065 H 
ATOM     13  H   UNL     1     -50.312  33.030  26.286  1.00  0.00     0.085 H 
ENDROOT
BRANCH   1  14
ATOM     14  C   UNL     1     -48.312  36.693  28.045  1.00  0.00     0.060 C 
ATOM     15  H   UNL     1     -49.203  37.292  27.827  1.00  0.00     0.056 H 
ATOM     16  H   UNL     1     -48.372  36.373  29.091  1.00  0.00     0.056 H 
BRANCH  14  17
ATOM     17  N   UNL     1     -47.121  37.500  27.915  1.00  0.00    -0.345 N 
ATOM     18  O   UNL     1     -46.191  36.920  29.933  1.00  0.00    -0.268 OA
ATOM     19  C   UNL     1     -46.192  37.606  28.917  1.00  0.00     0.270 C 
ATOM     20  H   UNL     1     -47.107  38.228  27.206  1.00  0.00     0.164 HD
BRANCH  19  21
ATOM     21  C   UNL     1     -45.172  38.687  28.649  1.00  0.00     0.136 A 
ATOM     22  C   UNL     1     -44.254  38.887  29.596  1.00  0.00     0.035 A 
ATOM     23  N   UNL     1     -45.252  39.395  27.472  1.00  0.00    -0.225 NA
ATOM     24  C   UNL     1     -43.248  39.934  29.380  1.00  0.00     0.258 A 
ATOM     25  H   UNL     1     -44.202  38.326  30.520  1.00  0.00     0.071 H 
ATOM     26  C   UNL     1     -44.362  40.321  27.284  1.00  0.00     0.140 A 
ATOM     27  O   UNL     1     -42.397  40.125  30.249  1.00  0.00    -0.269 OA
ATOM     28  N   UNL     1     -43.350  40.632  28.186  1.00  0.00    -0.268 N 
ATOM     29  C   UNL     1     -44.411  41.114  26.023  1.00  0.00    -0.019 A 
ATOM     30  C   UNL     1     -42.432  41.640  27.910  1.00  0.00     0.014 A 
ATOM     31  C   UNL     1     -43.506  42.074  25.802  1.00  0.00    -0.057 A 
ATOM     32  H   UNL     1     -45.197  40.879  25.316  1.00  0.00     0.066 H 
ATOM     33  C   UNL     1     -42.481  42.349  26.774  1.00  0.00    -0.045 A 
ATOM     34  H   UNL     1     -41.667  41.831  28.658  1.00  0.00     0.082 H 
ATOM     35  H   UNL     1     -43.525  42.662  24.890  1.00  0.00     0.062 H 
ATOM     36  H   UNL     1     -41.760  43.132  26.569  1.00  0.00     0.064 H 
ENDBRANCH  19  21
ENDBRANCH  14  17
ENDBRANCH   1  14
BRANCH   5  37
ATOM     37  C   UNL     1     -45.751  31.440  23.452  1.00  0.00     0.036 C 
ATOM     38  H   UNL     1     -45.725  30.415  23.842  1.00  0.00     0.049 H 
ATOM     39  H   UNL     1     -44.712  31.791  23.464  1.00  0.00     0.049 H 
BRANCH  37  40
ATOM     40  N   UNL     1     -46.279  31.395  22.092  1.00  0.00    -0.311 NA
ATOM     41  H   UNL     1     -45.510  31.457  21.428  1.00  0.00     0.123 HD
BRANCH  40  42
ATOM     42  C   UNL     1     -47.051  30.180  21.827  1.00  0.00     0.001 C 
ATOM     43  H   UNL     1     -46.442  29.440  21.298  1.00  0.00     0.043 H 
ATOM     44  H   UNL     1     -47.373  29.729  22.772  1.00  0.00     0.043 H 
BRANCH  42  45
ATOM     45  C   UNL     1     -48.246  30.517  21.010  1.00  0.00    -0.016 C 
ATOM     46  C   UNL     1     -49.563  31.296  21.411  1.00  0.00    -0.043 C 
ATOM     47  C   UNL     1     -48.352  31.329  19.658  1.00  0.00    -0.043 C 
ATOM     48  C   UNL     1     -49.237  29.507  20.306  1.00  0.00    -0.043 C 
ATOM     49  C   UNL     1     -49.836  30.901  19.919  1.00  0.00    -0.040 C 
ATOM     50  H   UNL     1     -50.200  30.832  22.171  1.00  0.00     0.028 H 
ATOM     51  H   UNL     1     -49.462  32.364  21.629  1.00  0.00     0.028 H 
ATOM     52  H   UNL     1     -48.131  32.401  19.703  1.00  0.00     0.028 H 
ATOM     53  H   UNL     1     -47.857  30.897  18.781  1.00  0.00     0.028 H 
ATOM     54  H   UNL     1     -49.843  28.870  20.959  1.00  0.00     0.028 H 
ATOM     55  H   UNL     1     -48.828  28.899  19.492  1.00  0.00     0.028 H 
ATOM     56  H   UNL     1     -50.708  31.111  19.320  1.00  0.00     0.030 H 
ENDBRANCH  42  45
ENDBRANCH  40  42
ENDBRANCH  37  40
ENDBRANCH   5  37
TORSDOF 7
ENDMDL
MODEL 6
REMARK VINA RESULT:      -9.8      1.706      2.403
REMARK SMILES O=C(NCc1cc2[nH]c(CNCC34CC(C3)C4)cc2cn1)c1cc(=O)n2ccccc2n1
REMARK SMILES IDX 5 1 6 2 7 3 8 4 9 5 18 6 19 7 20 8 21 9 4 14 3 17 1 18 2 19
REMARK SMILES IDX 22 21 23 22 32 23 24 24 31 26 25 27 26 28 30 29 27 30 29 31
REMARK SMILES IDX 28 33 10 37 11 40 12 42 13 45 14 46 16 47 17 48 15 49
REMARK H PARENT 6 10 8 11 18 12 20 13 4 15 4 16 3 20 23 25 30 32 27 34 29 35
REMARK H PARENT 28 36 10 38 10 39 11 41 12 43 12 44 14 50 14 51 16 52 16 53
REMARK H PARENT 17 54 17 55 15 56
REMARK Flexibility Score: inf
ROOT
ATOM      1  C   UNL     1     -47.125  35.055  27.469  1.00  0.00     0.062 A 
ATOM      2  C   UNL     1     -46.114  34.390  26.773  1.00  0.00    -0.014 A 
ATOM      3  C   UNL     1     -46.540  33.414  25.875  1.00  0.00     0.049 A 
ATOM      4  N   UNL     1     -45.819  32.588  25.046  1.00  0.00    -0.357 N 
ATOM      5  C   UNL     1     -46.664  31.767  24.335  1.00  0.00     0.030 A 
ATOM      6  C   UNL     1     -47.954  32.087  24.711  1.00  0.00    -0.031 A 
ATOM      7  C   UNL     1     -47.888  33.119  25.688  1.00  0.00     0.018 A 
ATOM      8  C   UNL     1     -48.836  33.828  26.432  1.00  0.00     0.037 A 
ATOM      9  N   UNL     1     -48.447  34.781  27.317  1.00  0.00    -0.259 NA
ATOM     10  H   UNL     1     -45.066  34.615  26.933  1.00  0.00     0.067 H 
ATOM     11  H   UNL     1     -44.810  32.585  24.975  1.00  0.00     0.166 HD
ATOM     12  H   UNL     1     -48.853  31.621  24.329  1.00  0.00     0.065 H 
ATOM     13  H   UNL     1     -49.902  33.656  26.346  1.00  0.00     0.085 H 
ENDROOT
BRANCH   1  14
ATOM     14  C   UNL     1     -46.756  36.105  28.495  1.00  0.00     0.060 C 
ATOM     15  H   UNL     1     -47.616  36.334  29.133  1.00  0.00     0.056 H 
ATOM     16  H   UNL     1     -45.955  35.723  29.138  1.00  0.00     0.056 H 
BRANCH  14  17
ATOM     17  N   UNL     1     -46.261  37.309  27.869  1.00  0.00    -0.345 N 
ATOM     18  O   UNL     1     -44.776  37.874  29.527  1.00  0.00    -0.268 OA
ATOM     19  C   UNL     1     -45.361  38.141  28.484  1.00  0.00     0.270 C 
ATOM     20  H   UNL     1     -46.795  37.708  27.102  1.00  0.00     0.164 HD
BRANCH  19  21
ATOM     21  C   UNL     1     -45.184  39.447  27.748  1.00  0.00     0.136 A 
ATOM     22  C   UNL     1     -46.277  39.966  27.185  1.00  0.00     0.035 A 
ATOM     23  N   UNL     1     -43.930  40.012  27.694  1.00  0.00    -0.225 NA
ATOM     24  C   UNL     1     -46.148  41.232  26.452  1.00  0.00     0.258 A 
ATOM     25  H   UNL     1     -47.258  39.512  27.232  1.00  0.00     0.071 H 
ATOM     26  C   UNL     1     -43.820  41.131  27.044  1.00  0.00     0.140 A 
ATOM     27  O   UNL     1     -47.151  41.717  25.930  1.00  0.00    -0.269 OA
ATOM     28  N   UNL     1     -44.875  41.780  26.414  1.00  0.00    -0.268 N 
ATOM     29  C   UNL     1     -42.480  41.777  26.959  1.00  0.00    -0.019 A 
ATOM     30  C   UNL     1     -44.674  42.979  25.738  1.00  0.00     0.014 A 
ATOM     31  C   UNL     1     -42.336  42.932  26.297  1.00  0.00    -0.057 A 
ATOM     32  H   UNL     1     -41.652  41.278  27.447  1.00  0.00     0.066 H 
ATOM     33  C   UNL     1     -43.467  43.556  25.665  1.00  0.00    -0.045 A 
ATOM     34  H   UNL     1     -45.543  43.433  25.267  1.00  0.00     0.082 H 
ATOM     35  H   UNL     1     -41.368  43.418  26.224  1.00  0.00     0.062 H 
ATOM     36  H   UNL     1     -43.322  44.491  25.136  1.00  0.00     0.064 H 
ENDBRANCH  19  21
ENDBRANCH  14  17
ENDBRANCH   1  14
BRANCH   5  37
ATOM     37  C   UNL     1     -46.148  30.768  23.357  1.00  0.00     0.036 C 
ATOM     38  H   UNL     1     -45.312  30.225  23.811  1.00  0.00     0.049 H 
ATOM     39  H   UNL     1     -45.737  31.266  22.470  1.00  0.00     0.049 H 
BRANCH  37  40
ATOM     40  N   UNL     1     -47.174  29.796  22.989  1.00  0.00    -0.311 NA
ATOM     41  H   UNL     1     -47.295  29.798  21.979  1.00  0.00     0.123 HD
BRANCH  40  42
ATOM     42  C   UNL     1     -46.851  28.441  23.435  1.00  0.00     0.001 C 
ATOM     43  H   UNL     1     -46.764  27.761  22.581  1.00  0.00     0.043 H 
ATOM     44  H   UNL     1     -45.889  28.439  23.960  1.00  0.00     0.043 H 
BRANCH  42  45
ATOM     45  C   UNL     1     -47.913  27.952  24.354  1.00  0.00    -0.016 C 
ATOM     46  C   UNL     1     -47.857  26.826  25.463  1.00  0.00    -0.043 C 
ATOM     47  C   UNL     1     -48.781  28.746  25.411  1.00  0.00    -0.043 C 
ATOM     48  C   UNL     1     -49.287  27.281  23.954  1.00  0.00    -0.043 C 
ATOM     49  C   UNL     1     -49.353  27.291  25.518  1.00  0.00    -0.040 C 
ATOM     50  H   UNL     1     -47.668  25.803  25.120  1.00  0.00     0.028 H 
ATOM     51  H   UNL     1     -47.243  27.029  26.346  1.00  0.00     0.028 H 
ATOM     52  H   UNL     1     -48.258  29.139  26.289  1.00  0.00     0.028 H 
ATOM     53  H   UNL     1     -49.454  29.517  25.020  1.00  0.00     0.028 H 
ATOM     54  H   UNL     1     -49.237  26.302  23.466  1.00  0.00     0.028 H 
ATOM     55  H   UNL     1     -50.010  27.910  23.423  1.00  0.00     0.028 H 
ATOM     56  H   UNL     1     -50.143  26.929  26.157  1.00  0.00     0.030 H 
ENDBRANCH  42  45
ENDBRANCH  40  42
ENDBRANCH  37  40
ENDBRANCH   5  37
TORSDOF 7
ENDMDL
MODEL 7
REMARK VINA RESULT:      -9.6      2.723     11.806
REMARK SMILES O=C(NCc1cc2[nH]c(CNCC34CC(C3)C4)cc2cn1)c1cc(=O)n2ccccc2n1
REMARK SMILES IDX 5 1 6 2 7 3 8 4 9 5 18 6 19 7 20 8 21 9 4 14 3 17 1 18 2 19
REMARK SMILES IDX 22 21 23 22 32 23 24 24 31 26 25 27 26 28 30 29 27 30 29 31
REMARK SMILES IDX 28 33 10 37 11 40 12 42 13 45 14 46 16 47 17 48 15 49
REMARK H PARENT 6 10 8 11 18 12 20 13 4 15 4 16 3 20 23 25 30 32 27 34 29 35
REMARK H PARENT 28 36 10 38 10 39 11 41 12 43 12 44 14 50 14 51 16 52 16 53
REMARK H PARENT 17 54 17 55 15 56
REMARK Flexibility Score: inf
ROOT
ATOM      1  C   UNL     1     -48.227  34.040  26.619  1.00  0.00     0.062 A 
ATOM      2  C   UNL     1     -48.594  35.387  26.654  1.00  0.00    -0.014 A 
ATOM      3  C   UNL     1     -47.623  36.266  27.128  1.00  0.00     0.049 A 
ATOM      4  N   UNL     1     -47.656  37.630  27.289  1.00  0.00    -0.357 N 
ATOM      5  C   UNL     1     -46.461  38.081  27.803  1.00  0.00     0.030 A 
ATOM      6  C   UNL     1     -45.644  36.979  27.959  1.00  0.00    -0.031 A 
ATOM      7  C   UNL     1     -46.368  35.827  27.545  1.00  0.00     0.018 A 
ATOM      8  C   UNL     1     -46.085  34.459  27.484  1.00  0.00     0.037 A 
ATOM      9  N   UNL     1     -47.016  33.580  27.031  1.00  0.00    -0.259 NA
ATOM     10  H   UNL     1     -49.576  35.720  26.340  1.00  0.00     0.067 H 
ATOM     11  H   UNL     1     -48.450  38.216  27.065  1.00  0.00     0.166 HD
ATOM     12  H   UNL     1     -44.631  36.998  28.341  1.00  0.00     0.065 H 
ATOM     13  H   UNL     1     -45.136  34.039  27.792  1.00  0.00     0.085 H 
ENDROOT
BRANCH   1  14
ATOM     14  C   UNL     1     -49.230  33.007  26.156  1.00  0.00     0.060 C 
ATOM     15  H   UNL     1     -50.024  32.883  26.900  1.00  0.00     0.056 H 
ATOM     16  H   UNL     1     -49.697  33.342  25.223  1.00  0.00     0.056 H 
BRANCH  14  17
ATOM     17  N   UNL     1     -48.598  31.737  25.882  1.00  0.00    -0.345 N 
ATOM     18  O   UNL     1     -49.721  31.302  23.927  1.00  0.00    -0.268 OA
ATOM     19  C   UNL     1     -48.961  30.948  24.820  1.00  0.00     0.270 C 
ATOM     20  H   UNL     1     -48.093  31.278  26.635  1.00  0.00     0.164 HD
BRANCH  19  21
ATOM     21  C   UNL     1     -48.340  29.574  24.882  1.00  0.00     0.136 A 
ATOM     22  C   UNL     1     -47.350  29.330  24.021  1.00  0.00     0.035 A 
ATOM     23  N   UNL     1     -48.825  28.668  25.797  1.00  0.00    -0.225 NA
ATOM     24  C   UNL     1     -46.722  28.003  24.042  1.00  0.00     0.258 A 
ATOM     25  H   UNL     1     -46.977  30.049  23.305  1.00  0.00     0.071 H 
ATOM     26  C   UNL     1     -48.269  27.495  25.811  1.00  0.00     0.140 A 
ATOM     27  O   UNL     1     -45.808  27.769  23.251  1.00  0.00    -0.269 OA
ATOM     28  N   UNL     1     -47.229  27.109  24.973  1.00  0.00    -0.268 N 
ATOM     29  C   UNL     1     -48.764  26.482  26.785  1.00  0.00    -0.019 A 
ATOM     30  C   UNL     1     -46.685  25.831  25.052  1.00  0.00     0.014 A 
ATOM     31  C   UNL     1     -48.209  25.265  26.824  1.00  0.00    -0.057 A 
ATOM     32  H   UNL     1     -49.575  26.774  27.442  1.00  0.00     0.066 H 
ATOM     33  C   UNL     1     -47.134  24.925  25.930  1.00  0.00    -0.045 A 
ATOM     34  H   UNL     1     -45.874  25.596  24.367  1.00  0.00     0.082 H 
ATOM     35  H   UNL     1     -48.555  24.513  27.526  1.00  0.00     0.062 H 
ATOM     36  H   UNL     1     -46.703  23.932  25.983  1.00  0.00     0.064 H 
ENDBRANCH  19  21
ENDBRANCH  14  17
ENDBRANCH   1  14
BRANCH   5  37
ATOM     37  C   UNL     1     -46.221  39.526  28.077  1.00  0.00     0.036 C 
ATOM     38  H   UNL     1     -46.861  39.840  28.910  1.00  0.00     0.049 H 
ATOM     39  H   UNL     1     -46.520  40.141  27.220  1.00  0.00     0.049 H 
BRANCH  37  40
ATOM     40  N   UNL     1     -44.833  39.778  28.452  1.00  0.00    -0.311 NA
ATOM     41  H   UNL     1     -44.302  38.912  28.388  1.00  0.00     0.123 HD
BRANCH  40  42
ATOM     42  C   UNL     1     -44.199  40.797  27.613  1.00  0.00     0.001 C 
ATOM     43  H   UNL     1     -44.014  40.411  26.606  1.00  0.00     0.043 H 
ATOM     44  H   UNL     1     -44.860  41.666  27.519  1.00  0.00     0.043 H 
BRANCH  42  45
ATOM     45  C   UNL     1     -42.914  41.221  28.228  1.00  0.00    -0.016 C 
ATOM     46  C   UNL     1     -42.189  40.694  29.531  1.00  0.00    -0.043 C 
ATOM     47  C   UNL     1     -41.460  41.256  27.609  1.00  0.00    -0.043 C 
ATOM     48  C   UNL     1     -42.550  42.654  28.786  1.00  0.00    -0.043 C 
ATOM     49  C   UNL     1     -41.237  41.840  29.046  1.00  0.00    -0.040 C 
ATOM     50  H   UNL     1     -42.708  40.849  30.483  1.00  0.00     0.028 H 
ATOM     51  H   UNL     1     -41.791  39.674  29.500  1.00  0.00     0.028 H 
ATOM     52  H   UNL     1     -40.989  40.292  27.388  1.00  0.00     0.028 H 
ATOM     53  H   UNL     1     -41.296  41.937  26.766  1.00  0.00     0.028 H 
ATOM     54  H   UNL     1     -43.102  42.999  29.666  1.00  0.00     0.028 H 
ATOM     55  H   UNL     1     -42.492  43.469  28.057  1.00  0.00     0.028 H 
ATOM     56  H   UNL     1     -40.317  42.181  29.495  1.00  0.00     0.030 H 
ENDBRANCH  42  45
ENDBRANCH  40  42
ENDBRANCH  37  40
ENDBRANCH   5  37
TORSDOF 7
ENDMDL
