MODEL 1
REMARK VINA RESULT:     -11.3      0.000      0.000
REMARK SMILES Cn1ccc(-c2cn([C@H]3C[C@H](O)[C@@H](CCc4ccc5ccc(N6CCC6)nc5c4)O3)c3ncnc(N)c23)n1
REMARK SMILES IDX 9 1 10 2 11 3 13 4 30 5 8 11 6 12 7 13 37 14 31 16 35 17
REMARK SMILES IDX 32 18 34 19 33 20 5 22 2 23 3 24 38 25 4 26 1 29 36 33 12 36
REMARK SMILES IDX 14 38 15 41 16 44 17 45 29 46 18 47 28 49 19 51 27 53 20 54
REMARK SMILES IDX 22 55 21 56 23 59 24 60 26 61 25 62
REMARK H PARENT 9 6 10 7 10 8 11 9 13 10 7 15 33 21 3 27 4 28 1 30 1 31 1 32
REMARK H PARENT 36 34 36 35 12 37 14 39 14 40 15 42 15 43 17 48 29 50 18 52
REMARK H PARENT 20 57 21 58 24 63 24 64 26 65 26 66 25 67 25 68
REMARK Flexibility Score: inf
ROOT
ATOM      1  C   UNL     1     -45.078  37.921  28.801  1.00  0.00     0.138 C 
ATOM      2  C   UNL     1     -46.484  37.799  29.373  1.00  0.00     0.021 C 
ATOM      3  C   UNL     1     -46.770  36.325  29.213  1.00  0.00     0.085 C 
ATOM      4  C   UNL     1     -46.009  35.945  27.941  1.00  0.00     0.086 C 
ATOM      5  O   UNL     1     -45.018  36.958  27.728  1.00  0.00    -0.352 OA
ATOM      6  H   UNL     1     -44.331  37.635  29.552  1.00  0.00     0.085 H 
ATOM      7  H   UNL     1     -46.534  38.152  30.409  1.00  0.00     0.034 H 
ATOM      8  H   UNL     1     -47.209  38.365  28.779  1.00  0.00     0.034 H 
ATOM      9  H   UNL     1     -47.838  36.099  29.168  1.00  0.00     0.063 H 
ATOM     10  H   UNL     1     -45.463  35.008  28.104  1.00  0.00     0.063 H 
ENDROOT
BRANCH   1  11
ATOM     11  N   UNL     1     -44.685  39.231  28.302  1.00  0.00    -0.305 N 
ATOM     12  C   UNL     1     -44.566  41.100  27.091  1.00  0.00     0.033 A 
ATOM     13  C   UNL     1     -45.272  39.928  27.280  1.00  0.00     0.019 A 
ATOM     14  C   UNL     1     -43.505  41.127  28.042  1.00  0.00     0.071 A 
ATOM     15  H   UNL     1     -46.127  39.555  26.733  1.00  0.00     0.083 H 
ATOM     16  C   UNL     1     -43.665  39.990  28.832  1.00  0.00     0.148 A 
ATOM     17  C   UNL     1     -42.399  41.937  28.351  1.00  0.00     0.137 A 
ATOM     18  N   UNL     1     -42.931  39.657  29.908  1.00  0.00    -0.218 NA
ATOM     19  N   UNL     1     -41.627  41.624  29.410  1.00  0.00    -0.219 NA
ATOM     20  C   UNL     1     -41.942  40.532  30.128  1.00  0.00     0.120 A 
ATOM     21  H   UNL     1     -41.308  40.329  30.986  1.00  0.00     0.106 H 
BRANCH  12  22
ATOM     22  C   UNL     1     -44.881  42.092  26.064  1.00  0.00     0.095 A 
ATOM     23  N   UNL     1     -44.643  43.338  24.376  1.00  0.00    -0.275 N 
ATOM     24  C   UNL     1     -45.894  43.627  24.838  1.00  0.00     0.025 A 
ATOM     25  N   UNL     1     -44.032  42.366  25.067  1.00  0.00    -0.173 NA
ATOM     26  C   UNL     1     -46.085  42.815  25.933  1.00  0.00    -0.016 A 
ATOM     27  H   UNL     1     -46.527  44.361  24.361  1.00  0.00     0.084 H 
ATOM     28  H   UNL     1     -46.971  42.759  26.549  1.00  0.00     0.066 H 
BRANCH  23  29
ATOM     29  C   UNL     1     -43.980  43.945  23.248  1.00  0.00     0.030 C 
ATOM     30  H   UNL     1     -43.105  43.341  22.995  1.00  0.00     0.048 H 
ATOM     31  H   UNL     1     -44.665  43.983  22.397  1.00  0.00     0.048 H 
ATOM     32  H   UNL     1     -43.680  44.956  23.532  1.00  0.00     0.048 H 
ENDBRANCH  23  29
ENDBRANCH  12  22
BRANCH  17  33
ATOM     33  N   UNL     1     -41.985  43.034  27.602  1.00  0.00    -0.383 N 
ATOM     34  H   UNL     1     -42.479  43.122  26.722  1.00  0.00     0.158 HD
ATOM     35  H   UNL     1     -40.973  43.038  27.539  1.00  0.00     0.158 HD
ENDBRANCH  17  33
ENDBRANCH   1  11
BRANCH   3  36
ATOM     36  O   UNL     1     -46.250  35.631  30.352  1.00  0.00    -0.390 OA
ATOM     37  H   UNL     1     -45.719  34.871  30.053  1.00  0.00     0.211 HD
ENDBRANCH   3  36
BRANCH   4  38
ATOM     38  C   UNL     1     -46.867  35.749  26.682  1.00  0.00    -0.020 C 
ATOM     39  H   UNL     1     -47.394  36.686  26.463  1.00  0.00     0.030 H 
ATOM     40  H   UNL     1     -46.176  35.590  25.843  1.00  0.00     0.030 H 
BRANCH  38  41
ATOM     41  C   UNL     1     -47.873  34.587  26.667  1.00  0.00    -0.025 C 
ATOM     42  H   UNL     1     -48.866  34.981  26.420  1.00  0.00     0.032 H 
ATOM     43  H   UNL     1     -47.944  34.216  27.699  1.00  0.00     0.032 H 
BRANCH  41  44
ATOM     44  C   UNL     1     -47.599  33.370  25.812  1.00  0.00    -0.046 A 
ATOM     45  C   UNL     1     -46.655  33.339  24.785  1.00  0.00    -0.058 A 
ATOM     46  C   UNL     1     -48.287  32.176  26.112  1.00  0.00    -0.033 A 
ATOM     47  C   UNL     1     -46.442  32.168  24.055  1.00  0.00    -0.053 A 
ATOM     48  H   UNL     1     -46.085  34.221  24.511  1.00  0.00     0.063 H 
ATOM     49  C   UNL     1     -48.083  30.989  25.416  1.00  0.00     0.073 A 
ATOM     50  H   UNL     1     -49.011  32.161  26.925  1.00  0.00     0.065 H 
ATOM     51  C   UNL     1     -47.153  30.997  24.362  1.00  0.00     0.000 A 
ATOM     52  H   UNL     1     -45.724  32.181  23.239  1.00  0.00     0.063 H 
ATOM     53  N   UNL     1     -48.760  29.881  25.772  1.00  0.00    -0.231 NA
ATOM     54  C   UNL     1     -46.968  29.815  23.645  1.00  0.00    -0.049 A 
ATOM     55  C   UNL     1     -48.574  28.740  25.071  1.00  0.00     0.129 A 
ATOM     56  C   UNL     1     -47.692  28.680  23.996  1.00  0.00    -0.019 A 
ATOM     57  H   UNL     1     -46.269  29.771  22.814  1.00  0.00     0.063 H 
ATOM     58  H   UNL     1     -47.566  27.762  23.434  1.00  0.00     0.066 H 
BRANCH  55  59
ATOM     59  N   UNL     1     -49.306  27.592  25.440  1.00  0.00    -0.356 N 
ATOM     60  C   UNL     1     -48.734  26.277  25.529  1.00  0.00     0.021 C 
ATOM     61  C   UNL     1     -50.491  27.101  24.797  1.00  0.00     0.021 C 
ATOM     62  C   UNL     1     -50.169  25.746  25.439  1.00  0.00    -0.018 C 
ATOM     63  H   UNL     1     -48.096  26.025  24.675  1.00  0.00     0.049 H 
ATOM     64  H   UNL     1     -48.214  26.090  26.471  1.00  0.00     0.049 H 
ATOM     65  H   UNL     1     -50.426  27.123  23.704  1.00  0.00     0.049 H 
ATOM     66  H   UNL     1     -51.408  27.583  25.143  1.00  0.00     0.049 H 
ATOM     67  H   UNL     1     -50.315  24.871  24.803  1.00  0.00     0.030 H 
ATOM     68  H   UNL     1     -50.650  25.580  26.409  1.00  0.00     0.030 H 
ENDBRANCH  55  59
ENDBRANCH  41  44
ENDBRANCH  38  41
ENDBRANCH   4  38
TORSDOF 9
ENDMDL
MODEL 2
REMARK VINA RESULT:      -9.9      1.852      2.371
REMARK SMILES Cn1ccc(-c2cn([C@H]3C[C@H](O)[C@@H](CCc4ccc5ccc(N6CCC6)nc5c4)O3)c3ncnc(N)c23)n1
REMARK SMILES IDX 9 1 10 2 11 3 13 4 30 5 8 11 6 12 7 13 37 14 31 16 35 17
REMARK SMILES IDX 32 18 34 19 33 20 5 22 2 23 3 24 38 25 4 26 1 29 36 33 12 36
REMARK SMILES IDX 14 38 15 41 16 44 17 45 29 46 18 47 28 49 19 51 27 53 20 54
REMARK SMILES IDX 22 55 21 56 23 59 24 60 26 61 25 62
REMARK H PARENT 9 6 10 7 10 8 11 9 13 10 7 15 33 21 3 27 4 28 1 30 1 31 1 32
REMARK H PARENT 36 34 36 35 12 37 14 39 14 40 15 42 15 43 17 48 29 50 18 52
REMARK H PARENT 20 57 21 58 24 63 24 64 26 65 26 66 25 67 25 68
REMARK Flexibility Score: inf
ROOT
ATOM      1  C   UNL     1     -45.103  37.921  28.888  1.00  0.00     0.138 C 
ATOM      2  C   UNL     1     -46.579  37.703  29.194  1.00  0.00     0.021 C 
ATOM      3  C   UNL     1     -46.704  36.200  29.122  1.00  0.00     0.085 C 
ATOM      4  C   UNL     1     -45.679  35.801  28.059  1.00  0.00     0.086 C 
ATOM      5  O   UNL     1     -44.753  36.889  27.941  1.00  0.00    -0.352 OA
ATOM      6  H   UNL     1     -44.497  37.769  29.790  1.00  0.00     0.085 H 
ATOM      7  H   UNL     1     -46.860  38.128  30.164  1.00  0.00     0.034 H 
ATOM      8  H   UNL     1     -47.217  38.147  28.423  1.00  0.00     0.034 H 
ATOM      9  H   UNL     1     -47.720  35.866  28.898  1.00  0.00     0.063 H 
ATOM     10  H   UNL     1     -45.100  34.938  28.409  1.00  0.00     0.063 H 
ENDROOT
BRANCH   1  11
ATOM     11  N   UNL     1     -44.729  39.220  28.351  1.00  0.00    -0.305 N 
ATOM     12  C   UNL     1     -44.655  41.066  27.100  1.00  0.00     0.033 A 
ATOM     13  C   UNL     1     -45.352  39.897  27.336  1.00  0.00     0.019 A 
ATOM     14  C   UNL     1     -43.561  41.112  28.013  1.00  0.00     0.071 A 
ATOM     15  H   UNL     1     -46.224  39.513  26.826  1.00  0.00     0.083 H 
ATOM     16  C   UNL     1     -43.693  39.991  28.831  1.00  0.00     0.148 A 
ATOM     17  C   UNL     1     -42.447  41.930  28.269  1.00  0.00     0.137 A 
ATOM     18  N   UNL     1     -42.922  39.680  29.887  1.00  0.00    -0.218 NA
ATOM     19  N   UNL     1     -41.639  41.638  29.307  1.00  0.00    -0.219 NA
ATOM     20  C   UNL     1     -41.928  40.560  30.056  1.00  0.00     0.120 A 
ATOM     21  H   UNL     1     -41.264  40.374  30.896  1.00  0.00     0.106 H 
BRANCH  12  22
ATOM     22  C   UNL     1     -45.007  42.038  26.066  1.00  0.00     0.095 A 
ATOM     23  N   UNL     1     -44.829  43.250  24.346  1.00  0.00    -0.275 N 
ATOM     24  C   UNL     1     -46.063  43.548  24.846  1.00  0.00     0.025 A 
ATOM     25  N   UNL     1     -44.194  42.291  25.034  1.00  0.00    -0.173 NA
ATOM     26  C   UNL     1     -46.215  42.759  25.964  1.00  0.00    -0.016 A 
ATOM     27  H   UNL     1     -46.713  44.273  24.378  1.00  0.00     0.084 H 
ATOM     28  H   UNL     1     -47.078  42.714  26.611  1.00  0.00     0.066 H 
BRANCH  23  29
ATOM     29  C   UNL     1     -44.207  43.834  23.184  1.00  0.00     0.030 C 
ATOM     30  H   UNL     1     -43.357  44.438  23.513  1.00  0.00     0.048 H 
ATOM     31  H   UNL     1     -43.864  43.042  22.513  1.00  0.00     0.048 H 
ATOM     32  H   UNL     1     -44.947  44.459  22.678  1.00  0.00     0.048 H 
ENDBRANCH  23  29
ENDBRANCH  12  22
BRANCH  17  33
ATOM     33  N   UNL     1     -42.061  43.012  27.486  1.00  0.00    -0.383 N 
ATOM     34  H   UNL     1     -42.467  42.994  26.557  1.00  0.00     0.158 HD
ATOM     35  H   UNL     1     -41.053  43.113  27.522  1.00  0.00     0.158 HD
ENDBRANCH  17  33
ENDBRANCH   1  11
BRANCH   3  36
ATOM     36  O   UNL     1     -46.363  35.650  30.400  1.00  0.00    -0.390 OA
ATOM     37  H   UNL     1     -45.423  35.393  30.399  1.00  0.00     0.211 HD
ENDBRANCH   3  36
BRANCH   4  38
ATOM     38  C   UNL     1     -46.254  35.425  26.684  1.00  0.00    -0.020 C 
ATOM     39  H   UNL     1     -47.293  35.771  26.628  1.00  0.00     0.030 H 
ATOM     40  H   UNL     1     -45.701  36.007  25.935  1.00  0.00     0.030 H 
BRANCH  38  41
ATOM     41  C   UNL     1     -46.187  33.951  26.252  1.00  0.00    -0.025 C 
ATOM     42  H   UNL     1     -45.758  33.361  27.071  1.00  0.00     0.032 H 
ATOM     43  H   UNL     1     -45.461  33.895  25.429  1.00  0.00     0.032 H 
BRANCH  41  44
ATOM     44  C   UNL     1     -47.434  33.261  25.747  1.00  0.00    -0.046 A 
ATOM     45  C   UNL     1     -48.700  33.440  26.304  1.00  0.00    -0.058 A 
ATOM     46  C   UNL     1     -47.325  32.441  24.605  1.00  0.00    -0.033 A 
ATOM     47  C   UNL     1     -49.809  32.785  25.765  1.00  0.00    -0.053 A 
ATOM     48  H   UNL     1     -48.853  34.067  27.178  1.00  0.00     0.063 H 
ATOM     49  C   UNL     1     -48.414  31.790  24.035  1.00  0.00     0.073 A 
ATOM     50  H   UNL     1     -46.354  32.301  24.133  1.00  0.00     0.065 H 
ATOM     51  C   UNL     1     -49.671  31.959  24.640  1.00  0.00     0.000 A 
ATOM     52  H   UNL     1     -50.779  32.918  26.240  1.00  0.00     0.063 H 
ATOM     53  N   UNL     1     -48.240  31.038  22.931  1.00  0.00    -0.231 NA
ATOM     54  C   UNL     1     -50.759  31.285  24.084  1.00  0.00    -0.049 A 
ATOM     55  C   UNL     1     -49.300  30.389  22.400  1.00  0.00     0.129 A 
ATOM     56  C   UNL     1     -50.570  30.486  22.961  1.00  0.00    -0.019 A 
ATOM     57  H   UNL     1     -51.751  31.374  24.520  1.00  0.00     0.063 H 
ATOM     58  H   UNL     1     -51.407  29.946  22.534  1.00  0.00     0.066 H 
BRANCH  55  59
ATOM     59  N   UNL     1     -49.100  29.587  21.256  1.00  0.00    -0.356 N 
ATOM     60  C   UNL     1     -49.547  29.952  19.940  1.00  0.00     0.021 C 
ATOM     61  C   UNL     1     -49.523  28.227  21.092  1.00  0.00     0.021 C 
ATOM     62  C   UNL     1     -49.407  28.468  19.582  1.00  0.00    -0.018 C 
ATOM     63  H   UNL     1     -50.574  30.334  19.924  1.00  0.00     0.049 H 
ATOM     64  H   UNL     1     -48.870  30.634  19.422  1.00  0.00     0.049 H 
ATOM     65  H   UNL     1     -50.540  28.047  21.456  1.00  0.00     0.049 H 
ATOM     66  H   UNL     1     -48.826  27.499  21.511  1.00  0.00     0.049 H 
ATOM     67  H   UNL     1     -50.208  28.047  18.970  1.00  0.00     0.030 H 
ATOM     68  H   UNL     1     -48.436  28.197  19.155  1.00  0.00     0.030 H 
ENDBRANCH  55  59
ENDBRANCH  41  44
ENDBRANCH  38  41
ENDBRANCH   4  38
TORSDOF 9
ENDMDL
MODEL 3
REMARK VINA RESULT:      -9.8      1.739      2.736
REMARK SMILES Cn1ccc(-c2cn([C@H]3C[C@H](O)[C@@H](CCc4ccc5ccc(N6CCC6)nc5c4)O3)c3ncnc(N)c23)n1
REMARK SMILES IDX 9 1 10 2 11 3 13 4 30 5 8 11 6 12 7 13 37 14 31 16 35 17
REMARK SMILES IDX 32 18 34 19 33 20 5 22 2 23 3 24 38 25 4 26 1 29 36 33 12 36
REMARK SMILES IDX 14 38 15 41 16 44 17 45 29 46 18 47 28 49 19 51 27 53 20 54
REMARK SMILES IDX 22 55 21 56 23 59 24 60 26 61 25 62
REMARK H PARENT 9 6 10 7 10 8 11 9 13 10 7 15 33 21 3 27 4 28 1 30 1 31 1 32
REMARK H PARENT 36 34 36 35 12 37 14 39 14 40 15 42 15 43 17 48 29 50 18 52
REMARK H PARENT 20 57 21 58 24 63 24 64 26 65 26 66 25 67 25 68
REMARK Flexibility Score: inf
ROOT
ATOM      1  C   UNL     1     -45.498  38.465  27.935  1.00  0.00     0.138 C 
ATOM      2  C   UNL     1     -46.499  38.404  29.082  1.00  0.00     0.021 C 
ATOM      3  C   UNL     1     -46.783  36.924  29.182  1.00  0.00     0.085 C 
ATOM      4  C   UNL     1     -46.657  36.432  27.739  1.00  0.00     0.086 C 
ATOM      5  O   UNL     1     -45.894  37.415  27.027  1.00  0.00    -0.352 OA
ATOM      6  H   UNL     1     -44.488  38.236  28.295  1.00  0.00     0.085 H 
ATOM      7  H   UNL     1     -46.093  38.843  30.000  1.00  0.00     0.034 H 
ATOM      8  H   UNL     1     -47.429  38.924  28.830  1.00  0.00     0.034 H 
ATOM      9  H   UNL     1     -47.754  36.705  29.636  1.00  0.00     0.063 H 
ATOM     10  H   UNL     1     -46.068  35.507  27.715  1.00  0.00     0.063 H 
ENDROOT
BRANCH   1  11
ATOM     11  N   UNL     1     -45.406  39.724  27.212  1.00  0.00    -0.305 N 
ATOM     12  C   UNL     1     -44.611  41.501  26.123  1.00  0.00     0.033 A 
ATOM     13  C   UNL     1     -44.275  40.283  26.680  1.00  0.00     0.019 A 
ATOM     14  C   UNL     1     -46.010  41.696  26.316  1.00  0.00     0.071 A 
ATOM     15  H   UNL     1     -43.304  39.811  26.743  1.00  0.00     0.083 H 
ATOM     16  C   UNL     1     -46.483  40.532  26.919  1.00  0.00     0.148 A 
ATOM     17  C   UNL     1     -46.965  42.702  26.092  1.00  0.00     0.137 A 
ATOM     18  N   UNL     1     -47.765  40.249  27.208  1.00  0.00    -0.218 NA
ATOM     19  N   UNL     1     -48.258  42.463  26.388  1.00  0.00    -0.219 NA
ATOM     20  C   UNL     1     -48.582  41.263  26.902  1.00  0.00     0.120 A 
ATOM     21  H   UNL     1     -49.637  41.104  27.105  1.00  0.00     0.106 H 
BRANCH  12  22
ATOM     22  C   UNL     1     -43.655  42.404  25.483  1.00  0.00     0.095 A 
ATOM     23  N   UNL     1     -42.767  43.623  24.005  1.00  0.00    -0.275 N 
ATOM     24  C   UNL     1     -41.913  43.698  25.066  1.00  0.00     0.025 A 
ATOM     25  N   UNL     1     -43.863  42.892  24.255  1.00  0.00    -0.173 NA
ATOM     26  C   UNL     1     -42.475  42.923  26.055  1.00  0.00    -0.016 A 
ATOM     27  H   UNL     1     -41.005  44.283  25.032  1.00  0.00     0.084 H 
ATOM     28  H   UNL     1     -42.083  42.758  27.048  1.00  0.00     0.066 H 
BRANCH  23  29
ATOM     29  C   UNL     1     -42.603  44.257  22.721  1.00  0.00     0.030 C 
ATOM     30  H   UNL     1     -43.475  44.889  22.533  1.00  0.00     0.048 H 
ATOM     31  H   UNL     1     -41.695  44.867  22.726  1.00  0.00     0.048 H 
ATOM     32  H   UNL     1     -42.525  43.476  21.961  1.00  0.00     0.048 H 
ENDBRANCH  23  29
ENDBRANCH  12  22
BRANCH  17  33
ATOM     33  N   UNL     1     -46.676  43.983  25.631  1.00  0.00    -0.383 N 
ATOM     34  H   UNL     1     -45.784  44.040  25.153  1.00  0.00     0.158 HD
ATOM     35  H   UNL     1     -46.816  44.651  26.380  1.00  0.00     0.158 HD
ENDBRANCH  17  33
ENDBRANCH   1  11
BRANCH   3  36
ATOM     36  O   UNL     1     -45.791  36.323  30.022  1.00  0.00    -0.390 OA
ATOM     37  H   UNL     1     -45.049  36.943  30.138  1.00  0.00     0.211 HD
ENDBRANCH   3  36
BRANCH   4  38
ATOM     38  C   UNL     1     -47.979  36.140  27.014  1.00  0.00    -0.020 C 
ATOM     39  H   UNL     1     -48.755  36.808  27.407  1.00  0.00     0.030 H 
ATOM     40  H   UNL     1     -47.839  36.426  25.963  1.00  0.00     0.030 H 
BRANCH  38  41
ATOM     41  C   UNL     1     -48.504  34.694  27.023  1.00  0.00    -0.025 C 
ATOM     42  H   UNL     1     -49.593  34.713  26.897  1.00  0.00     0.032 H 
ATOM     43  H   UNL     1     -48.324  34.299  28.032  1.00  0.00     0.032 H 
BRANCH  41  44
ATOM     44  C   UNL     1     -47.914  33.677  26.073  1.00  0.00    -0.046 A 
ATOM     45  C   UNL     1     -46.732  33.875  25.358  1.00  0.00    -0.058 A 
ATOM     46  C   UNL     1     -48.556  32.427  25.953  1.00  0.00    -0.033 A 
ATOM     47  C   UNL     1     -46.238  32.876  24.518  1.00  0.00    -0.053 A 
ATOM     48  H   UNL     1     -46.185  34.811  25.415  1.00  0.00     0.063 H 
ATOM     49  C   UNL     1     -48.078  31.406  25.139  1.00  0.00     0.073 A 
ATOM     50  H   UNL     1     -49.466  32.232  26.518  1.00  0.00     0.065 H 
ATOM     51  C   UNL     1     -46.906  31.648  24.401  1.00  0.00     0.000 A 
ATOM     52  H   UNL     1     -45.333  33.071  23.947  1.00  0.00     0.063 H 
ATOM     53  N   UNL     1     -48.731  30.229  25.089  1.00  0.00    -0.231 NA
ATOM     54  C   UNL     1     -46.441  30.634  23.563  1.00  0.00    -0.049 A 
ATOM     55  C   UNL     1     -48.273  29.253  24.274  1.00  0.00     0.129 A 
ATOM     56  C   UNL     1     -47.135  29.431  23.492  1.00  0.00    -0.019 A 
ATOM     57  H   UNL     1     -45.545  30.774  22.963  1.00  0.00     0.063 H 
ATOM     58  H   UNL     1     -46.790  28.645  22.831  1.00  0.00     0.066 H 
BRANCH  55  59
ATOM     59  N   UNL     1     -48.979  28.033  24.214  1.00  0.00    -0.356 N 
ATOM     60  C   UNL     1     -49.887  27.690  23.154  1.00  0.00     0.021 C 
ATOM     61  C   UNL     1     -49.860  27.515  25.221  1.00  0.00     0.021 C 
ATOM     62  C   UNL     1     -50.467  26.645  24.114  1.00  0.00    -0.018 C 
ATOM     63  H   UNL     1     -50.572  28.504  22.892  1.00  0.00     0.049 H 
ATOM     64  H   UNL     1     -49.390  27.298  22.264  1.00  0.00     0.049 H 
ATOM     65  H   UNL     1     -50.532  28.274  25.635  1.00  0.00     0.049 H 
ATOM     66  H   UNL     1     -49.343  26.976  26.017  1.00  0.00     0.049 H 
ATOM     67  H   UNL     1     -51.555  26.556  24.121  1.00  0.00     0.030 H 
ATOM     68  H   UNL     1     -50.017  25.651  24.023  1.00  0.00     0.030 H 
ENDBRANCH  55  59
ENDBRANCH  41  44
ENDBRANCH  38  41
ENDBRANCH   4  38
TORSDOF 9
ENDMDL
MODEL 4
REMARK VINA RESULT:      -9.7      2.048     12.060
REMARK SMILES Cn1ccc(-c2cn([C@H]3C[C@H](O)[C@@H](CCc4ccc5ccc(N6CCC6)nc5c4)O3)c3ncnc(N)c23)n1
REMARK SMILES IDX 9 1 10 2 11 3 13 4 30 5 8 11 6 12 7 13 37 14 31 16 35 17
REMARK SMILES IDX 32 18 34 19 33 20 5 22 2 23 3 24 38 25 4 26 1 29 36 33 12 36
REMARK SMILES IDX 14 38 15 41 16 44 17 45 29 46 18 47 28 49 19 51 27 53 20 54
REMARK SMILES IDX 22 55 21 56 23 59 24 60 26 61 25 62
REMARK H PARENT 9 6 10 7 10 8 11 9 13 10 7 15 33 21 3 27 4 28 1 30 1 31 1 32
REMARK H PARENT 36 34 36 35 12 37 14 39 14 40 15 42 15 43 17 48 29 50 18 52
REMARK H PARENT 20 57 21 58 24 63 24 64 26 65 26 66 25 67 25 68
REMARK Flexibility Score: inf
ROOT
ATOM      1  C   UNL     1     -47.448  32.437  26.951  1.00  0.00     0.138 C 
ATOM      2  C   UNL     1     -45.985  32.844  27.078  1.00  0.00     0.021 C 
ATOM      3  C   UNL     1     -46.076  34.119  27.882  1.00  0.00     0.085 C 
ATOM      4  C   UNL     1     -47.405  34.733  27.440  1.00  0.00     0.086 C 
ATOM      5  O   UNL     1     -48.182  33.676  26.862  1.00  0.00    -0.352 OA
ATOM      6  H   UNL     1     -47.781  31.912  27.855  1.00  0.00     0.085 H 
ATOM      7  H   UNL     1     -45.385  32.060  27.552  1.00  0.00     0.034 H 
ATOM      8  H   UNL     1     -45.547  33.073  26.102  1.00  0.00     0.034 H 
ATOM      9  H   UNL     1     -45.217  34.780  27.733  1.00  0.00     0.063 H 
ATOM     10  H   UNL     1     -47.962  35.080  28.319  1.00  0.00     0.063 H 
ENDROOT
BRANCH   1  11
ATOM     11  N   UNL     1     -47.794  31.584  25.824  1.00  0.00    -0.305 N 
ATOM     12  C   UNL     1     -48.702  29.979  24.568  1.00  0.00     0.033 A 
ATOM     13  C   UNL     1     -48.714  30.569  25.817  1.00  0.00     0.019 A 
ATOM     14  C   UNL     1     -47.739  30.665  23.773  1.00  0.00     0.071 A 
ATOM     15  H   UNL     1     -49.300  30.305  26.687  1.00  0.00     0.083 H 
ATOM     16  C   UNL     1     -47.260  31.709  24.561  1.00  0.00     0.148 A 
ATOM     17  C   UNL     1     -47.170  30.551  22.493  1.00  0.00     0.137 A 
ATOM     18  N   UNL     1     -46.392  32.663  24.179  1.00  0.00    -0.218 NA
ATOM     19  N   UNL     1     -46.280  31.476  22.082  1.00  0.00    -0.219 NA
ATOM     20  C   UNL     1     -45.961  32.473  22.926  1.00  0.00     0.120 A 
ATOM     21  H   UNL     1     -45.258  33.209  22.547  1.00  0.00     0.106 H 
BRANCH  12  22
ATOM     22  C   UNL     1     -49.535  28.838  24.192  1.00  0.00     0.095 A 
ATOM     23  N   UNL     1     -50.897  27.658  23.090  1.00  0.00    -0.275 N 
ATOM     24  C   UNL     1     -50.559  26.879  24.157  1.00  0.00     0.025 A 
ATOM     25  N   UNL     1     -50.242  28.828  23.056  1.00  0.00    -0.173 NA
ATOM     26  C   UNL     1     -49.656  27.618  24.889  1.00  0.00    -0.016 A 
ATOM     27  H   UNL     1     -50.973  25.892  24.302  1.00  0.00     0.084 H 
ATOM     28  H   UNL     1     -49.159  27.314  25.799  1.00  0.00     0.066 H 
BRANCH  23  29
ATOM     29  C   UNL     1     -51.830  27.326  22.042  1.00  0.00     0.030 C 
ATOM     30  H   UNL     1     -51.300  26.753  21.276  1.00  0.00     0.048 H 
ATOM     31  H   UNL     1     -52.647  26.728  22.454  1.00  0.00     0.048 H 
ATOM     32  H   UNL     1     -52.220  28.256  21.623  1.00  0.00     0.048 H 
ENDBRANCH  23  29
ENDBRANCH  12  22
BRANCH  17  33
ATOM     33  N   UNL     1     -47.408  29.504  21.608  1.00  0.00    -0.383 N 
ATOM     34  H   UNL     1     -48.374  29.453  21.306  1.00  0.00     0.158 HD
ATOM     35  H   UNL     1     -47.020  28.647  21.987  1.00  0.00     0.158 HD
ENDBRANCH  17  33
ENDBRANCH   1  11
BRANCH   3  36
ATOM     36  O   UNL     1     -46.099  33.783  29.274  1.00  0.00    -0.390 OA
ATOM     37  H   UNL     1     -45.278  33.313  29.506  1.00  0.00     0.211 HD
ENDBRANCH   3  36
BRANCH   4  38
ATOM     38  C   UNL     1     -47.305  35.924  26.476  1.00  0.00    -0.020 C 
ATOM     39  H   UNL     1     -46.313  35.918  26.007  1.00  0.00     0.030 H 
ATOM     40  H   UNL     1     -48.023  35.743  25.665  1.00  0.00     0.030 H 
BRANCH  38  41
ATOM     41  C   UNL     1     -47.593  37.329  27.031  1.00  0.00    -0.025 C 
ATOM     42  H   UNL     1     -48.289  37.240  27.874  1.00  0.00     0.032 H 
ATOM     43  H   UNL     1     -48.137  37.874  26.247  1.00  0.00     0.032 H 
BRANCH  41  44
ATOM     44  C   UNL     1     -46.445  38.227  27.432  1.00  0.00    -0.046 A 
ATOM     45  C   UNL     1     -45.663  38.026  28.571  1.00  0.00    -0.058 A 
ATOM     46  C   UNL     1     -46.097  39.289  26.573  1.00  0.00    -0.033 A 
ATOM     47  C   UNL     1     -44.603  38.886  28.861  1.00  0.00    -0.053 A 
ATOM     48  H   UNL     1     -45.872  37.220  29.268  1.00  0.00     0.063 H 
ATOM     49  C   UNL     1     -45.036  40.152  26.825  1.00  0.00     0.073 A 
ATOM     50  H   UNL     1     -46.673  39.457  25.663  1.00  0.00     0.065 H 
ATOM     51  C   UNL     1     -44.289  39.948  27.999  1.00  0.00     0.000 A 
ATOM     52  H   UNL     1     -44.031  38.725  29.773  1.00  0.00     0.063 H 
ATOM     53  N   UNL     1     -44.748  41.133  25.949  1.00  0.00    -0.231 NA
ATOM     54  C   UNL     1     -43.241  40.829  28.268  1.00  0.00    -0.049 A 
ATOM     55  C   UNL     1     -43.731  41.981  26.218  1.00  0.00     0.129 A 
ATOM     56  C   UNL     1     -42.966  41.859  27.375  1.00  0.00    -0.019 A 
ATOM     57  H   UNL     1     -42.640  40.722  29.167  1.00  0.00     0.063 H 
ATOM     58  H   UNL     1     -42.165  42.558  27.584  1.00  0.00     0.066 H 
BRANCH  55  59
ATOM     59  N   UNL     1     -43.454  43.018  25.303  1.00  0.00    -0.356 N 
ATOM     60  C   UNL     1     -43.936  43.035  23.949  1.00  0.00     0.021 C 
ATOM     61  C   UNL     1     -42.152  43.478  24.912  1.00  0.00     0.021 C 
ATOM     62  C   UNL     1     -42.831  44.059  23.666  1.00  0.00    -0.018 C 
ATOM     63  H   UNL     1     -43.815  42.075  23.436  1.00  0.00     0.049 H 
ATOM     64  H   UNL     1     -44.961  43.400  23.855  1.00  0.00     0.049 H 
ATOM     65  H   UNL     1     -41.450  42.660  24.717  1.00  0.00     0.049 H 
ATOM     66  H   UNL     1     -41.721  44.206  25.600  1.00  0.00     0.049 H 
ATOM     67  H   UNL     1     -42.291  43.931  22.725  1.00  0.00     0.030 H 
ATOM     68  H   UNL     1     -43.147  45.103  23.769  1.00  0.00     0.030 H 
ENDBRANCH  55  59
ENDBRANCH  41  44
ENDBRANCH  38  41
ENDBRANCH   4  38
TORSDOF 9
ENDMDL
MODEL 5
REMARK VINA RESULT:      -9.5      2.274      3.034
REMARK SMILES Cn1ccc(-c2cn([C@H]3C[C@H](O)[C@@H](CCc4ccc5ccc(N6CCC6)nc5c4)O3)c3ncnc(N)c23)n1
REMARK SMILES IDX 9 1 10 2 11 3 13 4 30 5 8 11 6 12 7 13 37 14 31 16 35 17
REMARK SMILES IDX 32 18 34 19 33 20 5 22 2 23 3 24 38 25 4 26 1 29 36 33 12 36
REMARK SMILES IDX 14 38 15 41 16 44 17 45 29 46 18 47 28 49 19 51 27 53 20 54
REMARK SMILES IDX 22 55 21 56 23 59 24 60 26 61 25 62
REMARK H PARENT 9 6 10 7 10 8 11 9 13 10 7 15 33 21 3 27 4 28 1 30 1 31 1 32
REMARK H PARENT 36 34 36 35 12 37 14 39 14 40 15 42 15 43 17 48 29 50 18 52
REMARK H PARENT 20 57 21 58 24 63 24 64 26 65 26 66 25 67 25 68
REMARK Flexibility Score: inf
ROOT
ATOM      1  C   UNL     1     -46.460  37.765  28.332  1.00  0.00     0.138 C 
ATOM      2  C   UNL     1     -47.601  36.851  28.758  1.00  0.00     0.021 C 
ATOM      3  C   UNL     1     -46.986  35.480  28.614  1.00  0.00     0.085 C 
ATOM      4  C   UNL     1     -46.017  35.638  27.441  1.00  0.00     0.086 C 
ATOM      5  O   UNL     1     -45.756  37.041  27.301  1.00  0.00    -0.352 OA
ATOM      6  H   UNL     1     -45.764  37.925  29.166  1.00  0.00     0.085 H 
ATOM      7  H   UNL     1     -47.948  37.079  29.772  1.00  0.00     0.034 H 
ATOM      8  H   UNL     1     -48.452  36.928  28.075  1.00  0.00     0.034 H 
ATOM      9  H   UNL     1     -47.729  34.692  28.465  1.00  0.00     0.063 H 
ATOM     10  H   UNL     1     -45.057  35.168  27.688  1.00  0.00     0.063 H 
ENDROOT
BRANCH   1  11
ATOM     11  N   UNL     1     -46.826  39.083  27.837  1.00  0.00    -0.305 N 
ATOM     12  C   UNL     1     -48.002  40.880  27.233  1.00  0.00     0.033 A 
ATOM     13  C   UNL     1     -48.077  39.639  27.835  1.00  0.00     0.019 A 
ATOM     14  C   UNL     1     -46.645  41.098  26.854  1.00  0.00     0.071 A 
ATOM     15  H   UNL     1     -48.945  39.128  28.229  1.00  0.00     0.083 H 
ATOM     16  C   UNL     1     -45.931  39.997  27.325  1.00  0.00     0.148 A 
ATOM     17  C   UNL     1     -45.897  42.061  26.156  1.00  0.00     0.137 A 
ATOM     18  N   UNL     1     -44.599  39.824  27.260  1.00  0.00    -0.218 NA
ATOM     19  N   UNL     1     -44.562  41.911  26.052  1.00  0.00    -0.219 NA
ATOM     20  C   UNL     1     -43.996  40.831  26.617  1.00  0.00     0.120 A 
ATOM     21  H   UNL     1     -42.915  40.761  26.530  1.00  0.00     0.106 H 
BRANCH  12  22
ATOM     22  C   UNL     1     -49.149  41.762  27.023  1.00  0.00     0.095 A 
ATOM     23  N   UNL     1     -50.455  43.118  26.067  1.00  0.00    -0.275 N 
ATOM     24  C   UNL     1     -51.011  42.921  27.297  1.00  0.00     0.025 A 
ATOM     25  N   UNL     1     -49.357  42.379  25.855  1.00  0.00    -0.173 NA
ATOM     26  C   UNL     1     -50.188  42.025  27.941  1.00  0.00    -0.016 A 
ATOM     27  H   UNL     1     -51.922  43.416  27.602  1.00  0.00     0.084 H 
ATOM     28  H   UNL     1     -50.321  41.623  28.935  1.00  0.00     0.066 H 
BRANCH  23  29
ATOM     29  C   UNL     1     -50.948  43.989  25.029  1.00  0.00     0.030 C 
ATOM     30  H   UNL     1     -50.123  44.218  24.349  1.00  0.00     0.048 H 
ATOM     31  H   UNL     1     -51.754  43.491  24.483  1.00  0.00     0.048 H 
ATOM     32  H   UNL     1     -51.322  44.902  25.498  1.00  0.00     0.048 H 
ENDBRANCH  23  29
ENDBRANCH  12  22
BRANCH  17  33
ATOM     33  N   UNL     1     -46.437  43.157  25.492  1.00  0.00    -0.383 N 
ATOM     34  H   UNL     1     -45.811  43.954  25.469  1.00  0.00     0.158 HD
ATOM     35  H   UNL     1     -47.369  43.342  25.846  1.00  0.00     0.158 HD
ENDBRANCH  17  33
ENDBRANCH   1  11
BRANCH   3  36
ATOM     36  O   UNL     1     -46.286  35.162  29.822  1.00  0.00    -0.390 OA
ATOM     37  H   UNL     1     -46.681  34.368  30.225  1.00  0.00     0.211 HD
ENDBRANCH   3  36
BRANCH   4  38
ATOM     38  C   UNL     1     -46.479  35.035  26.106  1.00  0.00    -0.020 C 
ATOM     39  H   UNL     1     -46.792  35.848  25.439  1.00  0.00     0.030 H 
ATOM     40  H   UNL     1     -45.595  34.583  25.635  1.00  0.00     0.030 H 
BRANCH  38  41
ATOM     41  C   UNL     1     -47.575  33.957  26.141  1.00  0.00    -0.025 C 
ATOM     42  H   UNL     1     -48.538  34.425  25.905  1.00  0.00     0.032 H 
ATOM     43  H   UNL     1     -47.651  33.617  27.183  1.00  0.00     0.032 H 
BRANCH  41  44
ATOM     44  C   UNL     1     -47.419  32.703  25.311  1.00  0.00    -0.046 A 
ATOM     45  C   UNL     1     -46.506  32.573  24.264  1.00  0.00    -0.058 A 
ATOM     46  C   UNL     1     -48.192  31.575  25.657  1.00  0.00    -0.033 A 
ATOM     47  C   UNL     1     -46.404  31.372  23.559  1.00  0.00    -0.053 A 
ATOM     48  H   UNL     1     -45.874  33.400  23.955  1.00  0.00     0.063 H 
ATOM     49  C   UNL     1     -48.100  30.360  24.986  1.00  0.00     0.073 A 
ATOM     50  H   UNL     1     -48.895  31.638  26.485  1.00  0.00     0.065 H 
ATOM     51  C   UNL     1     -47.198  30.270  23.911  1.00  0.00     0.000 A 
ATOM     52  H   UNL     1     -45.707  31.309  22.727  1.00  0.00     0.063 H 
ATOM     53  N   UNL     1     -48.854  29.318  25.384  1.00  0.00    -0.231 NA
ATOM     54  C   UNL     1     -47.125  29.060  23.220  1.00  0.00    -0.049 A 
ATOM     55  C   UNL     1     -48.776  28.150  24.708  1.00  0.00     0.129 A 
ATOM     56  C   UNL     1     -47.927  27.995  23.616  1.00  0.00    -0.019 A 
ATOM     57  H   UNL     1     -46.452  28.941  22.375  1.00  0.00     0.063 H 
ATOM     58  H   UNL     1     -47.889  27.057  23.074  1.00  0.00     0.066 H 
BRANCH  55  59
ATOM     59  N   UNL     1     -49.588  27.073  25.122  1.00  0.00    -0.356 N 
ATOM     60  C   UNL     1     -51.024  27.093  25.071  1.00  0.00     0.021 C 
ATOM     61  C   UNL     1     -49.579  26.455  26.416  1.00  0.00     0.021 C 
ATOM     62  C   UNL     1     -50.984  25.940  26.080  1.00  0.00    -0.018 C 
ATOM     63  H   UNL     1     -51.456  28.024  25.455  1.00  0.00     0.049 H 
ATOM     64  H   UNL     1     -51.430  26.853  24.086  1.00  0.00     0.049 H 
ATOM     65  H   UNL     1     -49.536  27.179  27.237  1.00  0.00     0.049 H 
ATOM     66  H   UNL     1     -48.808  25.690  26.530  1.00  0.00     0.049 H 
ATOM     67  H   UNL     1     -51.715  25.987  26.889  1.00  0.00     0.030 H 
ATOM     68  H   UNL     1     -51.002  24.943  25.626  1.00  0.00     0.030 H 
ENDBRANCH  55  59
ENDBRANCH  41  44
ENDBRANCH  38  41
ENDBRANCH   4  38
TORSDOF 9
ENDMDL
MODEL 6
REMARK VINA RESULT:      -9.1      5.075      8.320
REMARK SMILES Cn1ccc(-c2cn([C@H]3C[C@H](O)[C@@H](CCc4ccc5ccc(N6CCC6)nc5c4)O3)c3ncnc(N)c23)n1
REMARK SMILES IDX 9 1 10 2 11 3 13 4 30 5 8 11 6 12 7 13 37 14 31 16 35 17
REMARK SMILES IDX 32 18 34 19 33 20 5 22 2 23 3 24 38 25 4 26 1 29 36 33 12 36
REMARK SMILES IDX 14 38 15 41 16 44 17 45 29 46 18 47 28 49 19 51 27 53 20 54
REMARK SMILES IDX 22 55 21 56 23 59 24 60 26 61 25 62
REMARK H PARENT 9 6 10 7 10 8 11 9 13 10 7 15 33 21 3 27 4 28 1 30 1 31 1 32
REMARK H PARENT 36 34 36 35 12 37 14 39 14 40 15 42 15 43 17 48 29 50 18 52
REMARK H PARENT 20 57 21 58 24 63 24 64 26 65 26 66 25 67 25 68
REMARK Flexibility Score: inf
ROOT
ATOM      1  C   UNL     1     -45.246  37.896  28.514  1.00  0.00     0.138 C 
ATOM      2  C   UNL     1     -46.197  37.848  29.704  1.00  0.00     0.021 C 
ATOM      3  C   UNL     1     -46.875  36.512  29.519  1.00  0.00     0.085 C 
ATOM      4  C   UNL     1     -46.925  36.337  28.000  1.00  0.00     0.086 C 
ATOM      5  O   UNL     1     -45.938  37.217  27.445  1.00  0.00    -0.352 OA
ATOM      6  H   UNL     1     -44.329  37.335  28.733  1.00  0.00     0.085 H 
ATOM      7  H   UNL     1     -45.664  37.949  30.655  1.00  0.00     0.034 H 
ATOM      8  H   UNL     1     -46.953  38.637  29.644  1.00  0.00     0.034 H 
ATOM      9  H   UNL     1     -47.857  36.461  29.997  1.00  0.00     0.063 H 
ATOM     10  H   UNL     1     -46.615  35.319  27.735  1.00  0.00     0.063 H 
ENDROOT
BRANCH   1  11
ATOM     11  N   UNL     1     -44.829  39.215  28.063  1.00  0.00    -0.305 N 
ATOM     12  C   UNL     1     -44.647  41.108  26.897  1.00  0.00     0.033 A 
ATOM     13  C   UNL     1     -45.362  39.932  27.025  1.00  0.00     0.019 A 
ATOM     14  C   UNL     1     -43.637  41.115  27.902  1.00  0.00     0.071 A 
ATOM     15  H   UNL     1     -46.186  39.571  26.427  1.00  0.00     0.083 H 
ATOM     16  C   UNL     1     -43.838  39.963  28.660  1.00  0.00     0.148 A 
ATOM     17  C   UNL     1     -42.549  41.918  28.284  1.00  0.00     0.137 A 
ATOM     18  N   UNL     1     -43.161  39.609  29.766  1.00  0.00    -0.218 NA
ATOM     19  N   UNL     1     -41.833  41.584  29.376  1.00  0.00    -0.219 NA
ATOM     20  C   UNL     1     -42.185  40.478  30.055  1.00  0.00     0.120 A 
ATOM     21  H   UNL     1     -41.597  40.258  30.940  1.00  0.00     0.106 H 
BRANCH  12  22
ATOM     22  C   UNL     1     -44.909  42.120  25.874  1.00  0.00     0.095 A 
ATOM     23  N   UNL     1     -44.607  43.355  24.188  1.00  0.00    -0.275 N 
ATOM     24  C   UNL     1     -45.836  43.716  24.658  1.00  0.00     0.025 A 
ATOM     25  N   UNL     1     -44.051  42.346  24.873  1.00  0.00    -0.173 NA
ATOM     26  C   UNL     1     -46.069  42.914  25.753  1.00  0.00    -0.016 A 
ATOM     27  H   UNL     1     -46.427  44.488  24.187  1.00  0.00     0.084 H 
ATOM     28  H   UNL     1     -46.952  42.908  26.374  1.00  0.00     0.066 H 
BRANCH  23  29
ATOM     29  C   UNL     1     -43.916  43.925  23.058  1.00  0.00     0.030 C 
ATOM     30  H   UNL     1     -43.847  43.165  22.275  1.00  0.00     0.048 H 
ATOM     31  H   UNL     1     -44.470  44.792  22.688  1.00  0.00     0.048 H 
ATOM     32  H   UNL     1     -42.920  44.230  23.385  1.00  0.00     0.048 H 
ENDBRANCH  23  29
ENDBRANCH  12  22
BRANCH  17  33
ATOM     33  N   UNL     1     -42.097  43.030  27.580  1.00  0.00    -0.383 N 
ATOM     34  H   UNL     1     -41.188  42.886  27.156  1.00  0.00     0.158 HD
ATOM     35  H   UNL     1     -42.185  43.857  28.160  1.00  0.00     0.158 HD
ENDBRANCH  17  33
ENDBRANCH   1  11
BRANCH   3  36
ATOM     36  O   UNL     1     -46.067  35.499  30.129  1.00  0.00    -0.390 OA
ATOM     37  H   UNL     1     -46.040  35.645  31.092  1.00  0.00     0.211 HD
ENDBRANCH   3  36
BRANCH   4  38
ATOM     38  C   UNL     1     -48.293  36.572  27.343  1.00  0.00    -0.020 C 
ATOM     39  H   UNL     1     -48.192  37.355  26.582  1.00  0.00     0.030 H 
ATOM     40  H   UNL     1     -48.551  35.654  26.799  1.00  0.00     0.030 H 
BRANCH  38  41
ATOM     41  C   UNL     1     -49.484  36.906  28.256  1.00  0.00    -0.025 C 
ATOM     42  H   UNL     1     -49.137  36.930  29.296  1.00  0.00     0.032 H 
ATOM     43  H   UNL     1     -50.181  36.059  28.191  1.00  0.00     0.032 H 
BRANCH  41  44
ATOM     44  C   UNL     1     -50.314  38.141  27.985  1.00  0.00    -0.046 A 
ATOM     45  C   UNL     1     -51.647  38.106  27.574  1.00  0.00    -0.058 A 
ATOM     46  C   UNL     1     -49.731  39.402  28.227  1.00  0.00    -0.033 A 
ATOM     47  C   UNL     1     -52.354  39.291  27.367  1.00  0.00    -0.053 A 
ATOM     48  H   UNL     1     -52.157  37.167  27.380  1.00  0.00     0.063 H 
ATOM     49  C   UNL     1     -50.416  40.599  28.048  1.00  0.00     0.073 A 
ATOM     50  H   UNL     1     -48.700  39.461  28.573  1.00  0.00     0.065 H 
ATOM     51  C   UNL     1     -51.746  40.534  27.597  1.00  0.00     0.000 A 
ATOM     52  H   UNL     1     -53.382  39.234  27.015  1.00  0.00     0.063 H 
ATOM     53  N   UNL     1     -49.802  41.767  28.319  1.00  0.00    -0.231 NA
ATOM     54  C   UNL     1     -52.425  41.735  27.390  1.00  0.00    -0.049 A 
ATOM     55  C   UNL     1     -50.469  42.926  28.116  1.00  0.00     0.129 A 
ATOM     56  C   UNL     1     -51.778  42.941  27.643  1.00  0.00    -0.019 A 
ATOM     57  H   UNL     1     -53.450  41.741  27.033  1.00  0.00     0.063 H 
ATOM     58  H   UNL     1     -52.292  43.878  27.470  1.00  0.00     0.066 H 
BRANCH  55  59
ATOM     59  N   UNL     1     -49.807  44.143  28.383  1.00  0.00    -0.356 N 
ATOM     60  C   UNL     1     -48.732  44.657  27.579  1.00  0.00     0.021 C 
ATOM     61  C   UNL     1     -49.146  44.497  29.606  1.00  0.00     0.021 C 
ATOM     62  C   UNL     1     -48.376  45.537  28.782  1.00  0.00    -0.018 C 
ATOM     63  H   UNL     1     -47.982  43.900  27.326  1.00  0.00     0.049 H 
ATOM     64  H   UNL     1     -49.070  45.185  26.685  1.00  0.00     0.049 H 
ATOM     65  H   UNL     1     -48.535  43.684  30.014  1.00  0.00     0.049 H 
ATOM     66  H   UNL     1     -49.819  44.898  30.366  1.00  0.00     0.049 H 
ATOM     67  H   UNL     1     -47.312  45.629  29.008  1.00  0.00     0.030 H 
ATOM     68  H   UNL     1     -48.837  46.531  28.767  1.00  0.00     0.030 H 
ENDBRANCH  55  59
ENDBRANCH  41  44
ENDBRANCH  38  41
ENDBRANCH   4  38
TORSDOF 9
ENDMDL
MODEL 7
REMARK VINA RESULT:      -8.9      1.449      2.078
REMARK SMILES Cn1ccc(-c2cn([C@H]3C[C@H](O)[C@@H](CCc4ccc5ccc(N6CCC6)nc5c4)O3)c3ncnc(N)c23)n1
REMARK SMILES IDX 9 1 10 2 11 3 13 4 30 5 8 11 6 12 7 13 37 14 31 16 35 17
REMARK SMILES IDX 32 18 34 19 33 20 5 22 2 23 3 24 38 25 4 26 1 29 36 33 12 36
REMARK SMILES IDX 14 38 15 41 16 44 17 45 29 46 18 47 28 49 19 51 27 53 20 54
REMARK SMILES IDX 22 55 21 56 23 59 24 60 26 61 25 62
REMARK H PARENT 9 6 10 7 10 8 11 9 13 10 7 15 33 21 3 27 4 28 1 30 1 31 1 32
REMARK H PARENT 36 34 36 35 12 37 14 39 14 40 15 42 15 43 17 48 29 50 18 52
REMARK H PARENT 20 57 21 58 24 63 24 64 26 65 26 66 25 67 25 68
REMARK Flexibility Score: inf
ROOT
ATOM      1  C   UNL     1     -47.377  37.089  27.939  1.00  0.00     0.138 C 
ATOM      2  C   UNL     1     -48.125  36.696  26.672  1.00  0.00     0.021 C 
ATOM      3  C   UNL     1     -48.421  35.235  26.913  1.00  0.00     0.085 C 
ATOM      4  C   UNL     1     -47.226  34.754  27.738  1.00  0.00     0.086 C 
ATOM      5  O   UNL     1     -46.618  35.919  28.313  1.00  0.00    -0.352 OA
ATOM      6  H   UNL     1     -48.083  37.306  28.750  1.00  0.00     0.085 H 
ATOM      7  H   UNL     1     -49.018  37.312  26.519  1.00  0.00     0.034 H 
ATOM      8  H   UNL     1     -47.488  36.784  25.787  1.00  0.00     0.034 H 
ATOM      9  H   UNL     1     -48.570  34.671  25.989  1.00  0.00     0.063 H 
ATOM     10  H   UNL     1     -47.578  34.144  28.578  1.00  0.00     0.063 H 
ENDROOT
BRANCH   1  11
ATOM     11  N   UNL     1     -46.487  38.236  27.845  1.00  0.00    -0.305 N 
ATOM     12  C   UNL     1     -45.472  40.091  27.134  1.00  0.00     0.033 A 
ATOM     13  C   UNL     1     -46.515  39.219  26.891  1.00  0.00     0.019 A 
ATOM     14  C   UNL     1     -44.777  39.628  28.289  1.00  0.00     0.071 A 
ATOM     15  H   UNL     1     -47.242  39.237  26.091  1.00  0.00     0.083 H 
ATOM     16  C   UNL     1     -45.490  38.524  28.752  1.00  0.00     0.148 A 
ATOM     17  C   UNL     1     -43.624  39.961  29.019  1.00  0.00     0.137 A 
ATOM     18  N   UNL     1     -45.237  37.822  29.871  1.00  0.00    -0.218 NA
ATOM     19  N   UNL     1     -43.324  39.268  30.135  1.00  0.00    -0.219 NA
ATOM     20  C   UNL     1     -44.144  38.268  30.502  1.00  0.00     0.120 A 
ATOM     21  H   UNL     1     -43.879  37.750  31.419  1.00  0.00     0.106 H 
BRANCH  12  22
ATOM     22  C   UNL     1     -45.164  41.255  26.304  1.00  0.00     0.095 A 
ATOM     23  N   UNL     1     -45.303  43.198  25.489  1.00  0.00    -0.275 N 
ATOM     24  C   UNL     1     -44.261  42.624  24.823  1.00  0.00     0.025 A 
ATOM     25  N   UNL     1     -45.829  42.408  26.436  1.00  0.00    -0.173 NA
ATOM     26  C   UNL     1     -44.135  41.356  25.345  1.00  0.00    -0.016 A 
ATOM     27  H   UNL     1     -43.709  43.150  24.057  1.00  0.00     0.084 H 
ATOM     28  H   UNL     1     -43.402  40.613  25.067  1.00  0.00     0.066 H 
BRANCH  23  29
ATOM     29  C   UNL     1     -45.832  44.524  25.283  1.00  0.00     0.030 C 
ATOM     30  H   UNL     1     -45.770  45.072  26.228  1.00  0.00     0.048 H 
ATOM     31  H   UNL     1     -45.246  45.038  24.516  1.00  0.00     0.048 H 
ATOM     32  H   UNL     1     -46.871  44.432  24.961  1.00  0.00     0.048 H 
ENDBRANCH  23  29
ENDBRANCH  12  22
BRANCH  17  33
ATOM     33  N   UNL     1     -42.704  40.936  28.646  1.00  0.00    -0.383 N 
ATOM     34  H   UNL     1     -42.969  41.867  28.948  1.00  0.00     0.158 HD
ATOM     35  H   UNL     1     -42.489  40.840  27.660  1.00  0.00     0.158 HD
ENDBRANCH  17  33
ENDBRANCH   1  11
BRANCH   3  36
ATOM     36  O   UNL     1     -49.638  35.131  27.660  1.00  0.00    -0.390 OA
ATOM     37  H   UNL     1     -49.521  35.553  28.529  1.00  0.00     0.211 HD
ENDBRANCH   3  36
BRANCH   4  38
ATOM     38  C   UNL     1     -46.185  33.916  26.982  1.00  0.00    -0.020 C 
ATOM     39  H   UNL     1     -45.183  34.187  27.339  1.00  0.00     0.030 H 
ATOM     40  H   UNL     1     -46.337  32.869  27.280  1.00  0.00     0.030 H 
BRANCH  38  41
ATOM     41  C   UNL     1     -46.202  33.956  25.445  1.00  0.00    -0.025 C 
ATOM     42  H   UNL     1     -45.240  34.345  25.090  1.00  0.00     0.032 H 
ATOM     43  H   UNL     1     -46.954  34.704  25.157  1.00  0.00     0.032 H 
BRANCH  41  44
ATOM     44  C   UNL     1     -46.547  32.707  24.666  1.00  0.00    -0.046 A 
ATOM     45  C   UNL     1     -45.988  32.385  23.429  1.00  0.00    -0.058 A 
ATOM     46  C   UNL     1     -47.433  31.779  25.252  1.00  0.00    -0.033 A 
ATOM     47  C   UNL     1     -46.339  31.199  22.782  1.00  0.00    -0.053 A 
ATOM     48  H   UNL     1     -45.292  33.052  22.929  1.00  0.00     0.063 H 
ATOM     49  C   UNL     1     -47.787  30.582  24.640  1.00  0.00     0.073 A 
ATOM     50  H   UNL     1     -47.866  31.991  26.228  1.00  0.00     0.065 H 
ATOM     51  C   UNL     1     -47.238  30.301  23.377  1.00  0.00     0.000 A 
ATOM     52  H   UNL     1     -45.913  30.989  21.803  1.00  0.00     0.063 H 
ATOM     53  N   UNL     1     -48.623  29.732  25.268  1.00  0.00    -0.231 NA
ATOM     54  C   UNL     1     -47.614  29.112  22.751  1.00  0.00    -0.049 A 
ATOM     55  C   UNL     1     -48.982  28.583  24.653  1.00  0.00     0.129 A 
ATOM     56  C   UNL     1     -48.501  28.252  23.390  1.00  0.00    -0.019 A 
ATOM     57  H   UNL     1     -47.226  28.853  21.770  1.00  0.00     0.063 H 
ATOM     58  H   UNL     1     -48.811  27.335  22.903  1.00  0.00     0.066 H 
BRANCH  55  59
ATOM     59  N   UNL     1     -49.875  27.713  25.312  1.00  0.00    -0.356 N 
ATOM     60  C   UNL     1     -49.509  26.899  26.438  1.00  0.00     0.021 C 
ATOM     61  C   UNL     1     -50.623  26.649  24.706  1.00  0.00     0.021 C 
ATOM     62  C   UNL     1     -50.747  26.056  26.114  1.00  0.00    -0.018 C 
ATOM     63  H   UNL     1     -48.553  26.382  26.304  1.00  0.00     0.049 H 
ATOM     64  H   UNL     1     -49.531  27.435  27.390  1.00  0.00     0.049 H 
ATOM     65  H   UNL     1     -50.029  26.054  24.003  1.00  0.00     0.049 H 
ATOM     66  H   UNL     1     -51.556  26.978  24.246  1.00  0.00     0.049 H 
ATOM     67  H   UNL     1     -50.621  24.974  26.188  1.00  0.00     0.030 H 
ATOM     68  H   UNL     1     -51.652  26.358  26.653  1.00  0.00     0.030 H 
ENDBRANCH  55  59
ENDBRANCH  41  44
ENDBRANCH  38  41
ENDBRANCH   4  38
TORSDOF 9
ENDMDL
