MODEL 1
REMARK VINA RESULT:     -10.5      0.000      0.000
REMARK SMILES CCc1nc2cc(OC[C@H]3O[C@@H](n4cc(-c5ccn(C)n5)c5c(N)ncnc54)[C@@H](F)[C@@H]3O)ccc2[nH]1
REMARK SMILES IDX 9 1 8 4 7 5 3 6 4 7 36 8 5 9 35 10 6 12 34 13 33 15 2 18
REMARK SMILES IDX 1 21 10 25 11 26 31 27 12 29 29 30 30 33 32 35 13 37 14 38
REMARK SMILES IDX 28 39 15 40 22 42 27 43 23 44 26 45 25 46 16 48 17 49 21 50
REMARK SMILES IDX 18 51 19 53 20 55 24 59
REMARK H PARENT 9 2 9 3 36 11 6 14 34 16 33 17 2 19 2 20 1 22 1 23 1 24 10 28
REMARK H PARENT 31 31 12 32 29 34 32 36 14 41 26 47 17 52 18 54 20 56 20 57
REMARK H PARENT 20 58 24 60 24 61
REMARK Flexibility Score: inf
ROOT
ATOM      1  C   UNL     1     -47.012  36.673  27.067  1.00  0.00     0.117 C 
ATOM      2  H   UNL     1     -46.421  36.767  26.149  1.00  0.00     0.073 H 
ATOM      3  H   UNL     1     -47.452  37.640  27.329  1.00  0.00     0.073 H 
ENDROOT
BRANCH   1   4
ATOM      4  O   UNL     1     -48.076  35.729  26.875  1.00  0.00    -0.491 OA
BRANCH   4   5
ATOM      5  C   UNL     1     -47.716  34.565  26.246  1.00  0.00     0.121 A 
ATOM      6  C   UNL     1     -48.376  30.290  24.980  1.00  0.00     0.106 A 
ATOM      7  N   UNL     1     -49.112  31.154  25.648  1.00  0.00    -0.233 NA
ATOM      8  N   UNL     1     -47.183  30.854  24.600  1.00  0.00    -0.342 N 
ATOM      9  C   UNL     1     -48.371  32.310  25.703  1.00  0.00     0.092 A 
ATOM     10  C   UNL     1     -47.153  32.146  25.054  1.00  0.00     0.066 A 
ATOM     11  H   UNL     1     -46.452  30.393  24.080  1.00  0.00     0.168 HD
ATOM     12  C   UNL     1     -48.670  33.541  26.301  1.00  0.00     0.008 A 
ATOM     13  C   UNL     1     -46.197  33.157  24.956  1.00  0.00    -0.033 A 
ATOM     14  H   UNL     1     -49.614  33.681  26.815  1.00  0.00     0.069 H 
ATOM     15  C   UNL     1     -46.509  34.380  25.565  1.00  0.00    -0.018 A 
ATOM     16  H   UNL     1     -45.256  33.012  24.435  1.00  0.00     0.065 H 
ATOM     17  H   UNL     1     -45.785  35.186  25.488  1.00  0.00     0.066 H 
BRANCH   6  18
ATOM     18  C   UNL     1     -48.738  28.882  24.655  1.00  0.00     0.003 C 
ATOM     19  H   UNL     1     -48.001  28.452  23.967  1.00  0.00     0.035 H 
ATOM     20  H   UNL     1     -49.703  28.869  24.137  1.00  0.00     0.035 H 
BRANCH  18  21
ATOM     21  C   UNL     1     -48.825  28.029  25.909  1.00  0.00    -0.058 C 
ATOM     22  H   UNL     1     -48.248  27.105  25.800  1.00  0.00     0.023 H 
ATOM     23  H   UNL     1     -49.863  27.753  26.130  1.00  0.00     0.023 H 
ATOM     24  H   UNL     1     -48.429  28.577  26.770  1.00  0.00     0.023 H 
ENDBRANCH  18  21
ENDBRANCH   6  18
ENDBRANCH   4   5
ENDBRANCH   1   4
BRANCH   1  25
ATOM     25  C   UNL     1     -46.121  36.167  28.215  1.00  0.00     0.123 C 
ATOM     26  O   UNL     1     -44.861  36.873  28.178  1.00  0.00    -0.345 OA
ATOM     27  C   UNL     1     -46.710  36.455  29.595  1.00  0.00     0.119 C 
ATOM     28  H   UNL     1     -45.896  35.104  28.078  1.00  0.00     0.067 H 
ATOM     29  C   UNL     1     -44.902  37.921  29.180  1.00  0.00     0.169 C 
ATOM     30  C   UNL     1     -46.282  37.886  29.836  1.00  0.00     0.173 C 
ATOM     31  H   UNL     1     -47.797  36.324  29.628  1.00  0.00     0.066 H 
ATOM     32  H   UNL     1     -44.112  37.682  29.903  1.00  0.00     0.088 H 
ATOM     33  F   UNL     1     -47.166  38.697  29.191  1.00  0.00    -0.239 F 
ATOM     34  H   UNL     1     -46.253  38.178  30.889  1.00  0.00     0.074 H 
BRANCH  27  35
ATOM     35  O   UNL     1     -46.131  35.614  30.597  1.00  0.00    -0.387 OA
ATOM     36  H   UNL     1     -45.402  35.113  30.188  1.00  0.00     0.211 HD
ENDBRANCH  27  35
BRANCH  29  37
ATOM     37  N   UNL     1     -44.563  39.200  28.574  1.00  0.00    -0.302 N 
ATOM     38  C   UNL     1     -45.193  39.809  27.520  1.00  0.00     0.019 A 
ATOM     39  C   UNL     1     -43.515  39.980  28.994  1.00  0.00     0.148 A 
ATOM     40  C   UNL     1     -44.551  41.008  27.267  1.00  0.00     0.033 A 
ATOM     41  H   UNL     1     -46.031  39.336  27.022  1.00  0.00     0.083 H 
ATOM     42  C   UNL     1     -43.492  41.138  28.222  1.00  0.00     0.071 A 
ATOM     43  N   UNL     1     -42.676  39.658  29.993  1.00  0.00    -0.218 NA
ATOM     44  C   UNL     1     -42.496  42.075  28.551  1.00  0.00     0.137 A 
ATOM     45  C   UNL     1     -41.754  40.616  30.188  1.00  0.00     0.120 A 
ATOM     46  N   UNL     1     -41.616  41.780  29.532  1.00  0.00    -0.219 NA
ATOM     47  H   UNL     1     -41.030  40.428  30.974  1.00  0.00     0.106 H 
BRANCH  40  48
ATOM     48  C   UNL     1     -44.888  41.952  26.195  1.00  0.00     0.095 A 
ATOM     49  C   UNL     1     -44.175  42.069  24.980  1.00  0.00    -0.016 A 
ATOM     50  N   UNL     1     -45.895  42.836  26.261  1.00  0.00    -0.173 NA
ATOM     51  C   UNL     1     -44.804  43.077  24.288  1.00  0.00     0.025 A 
ATOM     52  H   UNL     1     -43.315  41.503  24.649  1.00  0.00     0.066 H 
ATOM     53  N   UNL     1     -45.818  43.502  25.093  1.00  0.00    -0.275 N 
ATOM     54  H   UNL     1     -44.607  43.518  23.322  1.00  0.00     0.084 H 
BRANCH  53  55
ATOM     55  C   UNL     1     -46.764  44.553  24.813  1.00  0.00     0.030 C 
ATOM     56  H   UNL     1     -46.462  45.083  23.906  1.00  0.00     0.048 H 
ATOM     57  H   UNL     1     -47.749  44.102  24.672  1.00  0.00     0.048 H 
ATOM     58  H   UNL     1     -46.774  45.242  25.663  1.00  0.00     0.048 H 
ENDBRANCH  53  55
ENDBRANCH  40  48
BRANCH  44  59
ATOM     59  N   UNL     1     -42.345  43.304  27.926  1.00  0.00    -0.383 N 
ATOM     60  H   UNL     1     -41.529  43.323  27.333  1.00  0.00     0.158 HD
ATOM     61  H   UNL     1     -43.224  43.643  27.521  1.00  0.00     0.158 HD
ENDBRANCH  44  59
ENDBRANCH  29  37
ENDBRANCH   1  25
TORSDOF 10
ENDMDL
MODEL 2
REMARK VINA RESULT:      -9.0      3.463      8.051
REMARK SMILES CCc1nc2cc(OC[C@H]3O[C@@H](n4cc(-c5ccn(C)n5)c5c(N)ncnc54)[C@@H](F)[C@@H]3O)ccc2[nH]1
REMARK SMILES IDX 9 1 8 4 7 5 3 6 4 7 36 8 5 9 35 10 6 12 34 13 33 15 2 18
REMARK SMILES IDX 1 21 10 25 11 26 31 27 12 29 29 30 30 33 32 35 13 37 14 38
REMARK SMILES IDX 28 39 15 40 22 42 27 43 23 44 26 45 25 46 16 48 17 49 21 50
REMARK SMILES IDX 18 51 19 53 20 55 24 59
REMARK H PARENT 9 2 9 3 36 11 6 14 34 16 33 17 2 19 2 20 1 22 1 23 1 24 10 28
REMARK H PARENT 31 31 12 32 29 34 32 36 14 41 26 47 17 52 18 54 20 56 20 57
REMARK H PARENT 20 58 24 60 24 61
REMARK Flexibility Score: inf
ROOT
ATOM      1  C   UNL     1     -44.839  37.213  28.312  1.00  0.00     0.117 C 
ATOM      2  H   UNL     1     -45.156  37.590  27.333  1.00  0.00     0.073 H 
ATOM      3  H   UNL     1     -43.818  36.821  28.249  1.00  0.00     0.073 H 
ENDROOT
BRANCH   1   4
ATOM      4  O   UNL     1     -44.859  38.272  29.280  1.00  0.00    -0.491 OA
BRANCH   4   5
ATOM      5  C   UNL     1     -44.055  39.343  28.989  1.00  0.00     0.121 A 
ATOM      6  C   UNL     1     -42.600  42.703  26.360  1.00  0.00     0.106 A 
ATOM      7  N   UNL     1     -43.559  41.810  26.230  1.00  0.00    -0.233 NA
ATOM      8  N   UNL     1     -41.949  42.551  27.560  1.00  0.00    -0.342 N 
ATOM      9  C   UNL     1     -43.526  41.058  27.380  1.00  0.00     0.092 A 
ATOM     10  C   UNL     1     -42.520  41.501  28.230  1.00  0.00     0.066 A 
ATOM     11  H   UNL     1     -41.178  43.113  27.888  1.00  0.00     0.168 HD
ATOM     12  C   UNL     1     -44.318  39.968  27.764  1.00  0.00     0.008 A 
ATOM     13  C   UNL     1     -42.255  40.920  29.469  1.00  0.00    -0.033 A 
ATOM     14  H   UNL     1     -45.103  39.608  27.107  1.00  0.00     0.069 H 
ATOM     15  C   UNL     1     -43.052  39.827  29.836  1.00  0.00    -0.018 A 
ATOM     16  H   UNL     1     -41.472  41.288  30.124  1.00  0.00     0.065 H 
ATOM     17  H   UNL     1     -42.873  39.367  30.803  1.00  0.00     0.066 H 
BRANCH   6  18
ATOM     18  C   UNL     1     -42.228  43.754  25.373  1.00  0.00     0.003 C 
ATOM     19  H   UNL     1     -41.185  43.628  25.062  1.00  0.00     0.035 H 
ATOM     20  H   UNL     1     -42.303  44.737  25.849  1.00  0.00     0.035 H 
BRANCH  18  21
ATOM     21  C   UNL     1     -43.133  43.714  24.153  1.00  0.00    -0.058 C 
ATOM     22  H   UNL     1     -44.080  43.214  24.379  1.00  0.00     0.023 H 
ATOM     23  H   UNL     1     -42.659  43.175  23.324  1.00  0.00     0.023 H 
ATOM     24  H   UNL     1     -43.358  44.730  23.812  1.00  0.00     0.023 H 
ENDBRANCH  18  21
ENDBRANCH   6  18
ENDBRANCH   4   5
ENDBRANCH   1   4
BRANCH   1  25
ATOM     25  C   UNL     1     -45.801  36.109  28.786  1.00  0.00     0.123 C 
ATOM     26  O   UNL     1     -46.992  36.724  29.326  1.00  0.00    -0.345 OA
ATOM     27  C   UNL     1     -46.285  35.212  27.648  1.00  0.00     0.119 C 
ATOM     28  H   UNL     1     -45.344  35.533  29.598  1.00  0.00     0.067 H 
ATOM     29  C   UNL     1     -48.029  36.662  28.314  1.00  0.00     0.169 C 
ATOM     30  C   UNL     1     -47.426  36.015  27.067  1.00  0.00     0.173 C 
ATOM     31  H   UNL     1     -45.500  34.996  26.916  1.00  0.00     0.066 H 
ATOM     32  H   UNL     1     -48.829  36.041  28.736  1.00  0.00     0.088 H 
ATOM     33  F   UNL     1     -46.893  36.946  26.227  1.00  0.00    -0.239 F 
ATOM     34  H   UNL     1     -48.156  35.425  26.507  1.00  0.00     0.074 H 
BRANCH  27  35
ATOM     35  O   UNL     1     -46.787  33.967  28.141  1.00  0.00    -0.387 OA
ATOM     36  H   UNL     1     -46.883  33.358  27.386  1.00  0.00     0.211 HD
ENDBRANCH  27  35
BRANCH  29  37
ATOM     37  N   UNL     1     -48.581  37.989  28.089  1.00  0.00    -0.302 N 
ATOM     38  C   UNL     1     -47.889  39.135  27.793  1.00  0.00     0.019 A 
ATOM     39  C   UNL     1     -49.922  38.272  28.162  1.00  0.00     0.148 A 
ATOM     40  C   UNL     1     -48.799  40.168  27.658  1.00  0.00     0.033 A 
ATOM     41  H   UNL     1     -46.808  39.131  27.722  1.00  0.00     0.083 H 
ATOM     42  C   UNL     1     -50.105  39.620  27.867  1.00  0.00     0.071 A 
ATOM     43  N   UNL     1     -50.876  37.373  28.460  1.00  0.00    -0.218 NA
ATOM     44  C   UNL     1     -51.437  40.070  27.857  1.00  0.00     0.137 A 
ATOM     45  C   UNL     1     -52.098  37.932  28.449  1.00  0.00     0.120 A 
ATOM     46  N   UNL     1     -52.425  39.206  28.176  1.00  0.00    -0.219 NA
ATOM     47  H   UNL     1     -52.926  37.274  28.689  1.00  0.00     0.106 H 
BRANCH  40  48
ATOM     48  C   UNL     1     -48.469  41.570  27.379  1.00  0.00     0.095 A 
ATOM     49  C   UNL     1     -47.513  41.992  26.426  1.00  0.00    -0.016 A 
ATOM     50  N   UNL     1     -49.016  42.613  28.021  1.00  0.00    -0.173 NA
ATOM     51  C   UNL     1     -47.502  43.365  26.510  1.00  0.00     0.025 A 
ATOM     52  H   UNL     1     -46.907  41.384  25.770  1.00  0.00     0.066 H 
ATOM     53  N   UNL     1     -48.410  43.684  27.474  1.00  0.00    -0.275 N 
ATOM     54  H   UNL     1     -46.928  44.113  25.982  1.00  0.00     0.084 H 
BRANCH  53  55
ATOM     55  C   UNL     1     -48.756  45.006  27.934  1.00  0.00     0.030 C 
ATOM     56  H   UNL     1     -49.002  44.970  28.997  1.00  0.00     0.048 H 
ATOM     57  H   UNL     1     -47.898  45.663  27.771  1.00  0.00     0.048 H 
ATOM     58  H   UNL     1     -49.621  45.354  27.362  1.00  0.00     0.048 H 
ENDBRANCH  53  55
ENDBRANCH  40  48
BRANCH  44  59
ATOM     59  N   UNL     1     -51.820  41.366  27.541  1.00  0.00    -0.383 N 
ATOM     60  H   UNL     1     -51.315  41.720  26.742  1.00  0.00     0.158 HD
ATOM     61  H   UNL     1     -52.839  41.477  27.535  1.00  0.00     0.158 HD
ENDBRANCH  44  59
ENDBRANCH  29  37
ENDBRANCH   1  25
TORSDOF 10
ENDMDL
MODEL 3
REMARK VINA RESULT:      -8.8      2.420      3.220
REMARK SMILES CCc1nc2cc(OC[C@H]3O[C@@H](n4cc(-c5ccn(C)n5)c5c(N)ncnc54)[C@@H](F)[C@@H]3O)ccc2[nH]1
REMARK SMILES IDX 9 1 8 4 7 5 3 6 4 7 36 8 5 9 35 10 6 12 34 13 33 15 2 18
REMARK SMILES IDX 1 21 10 25 11 26 31 27 12 29 29 30 30 33 32 35 13 37 14 38
REMARK SMILES IDX 28 39 15 40 22 42 27 43 23 44 26 45 25 46 16 48 17 49 21 50
REMARK SMILES IDX 18 51 19 53 20 55 24 59
REMARK H PARENT 9 2 9 3 36 11 6 14 34 16 33 17 2 19 2 20 1 22 1 23 1 24 10 28
REMARK H PARENT 31 31 12 32 29 34 32 36 14 41 26 47 17 52 18 54 20 56 20 57
REMARK H PARENT 20 58 24 60 24 61
REMARK Flexibility Score: inf
ROOT
ATOM      1  C   UNL     1     -46.898  35.613  26.235  1.00  0.00     0.117 C 
ATOM      2  H   UNL     1     -46.217  35.377  25.410  1.00  0.00     0.073 H 
ATOM      3  H   UNL     1     -47.413  36.559  26.037  1.00  0.00     0.073 H 
ENDROOT
BRANCH   1   4
ATOM      4  O   UNL     1     -47.885  34.581  26.373  1.00  0.00    -0.491 OA
BRANCH   4   5
ATOM      5  C   UNL     1     -47.598  33.409  25.721  1.00  0.00     0.121 A 
ATOM      6  C   UNL     1     -48.367  29.105  24.627  1.00  0.00     0.106 A 
ATOM      7  N   UNL     1     -49.018  29.973  25.374  1.00  0.00    -0.233 NA
ATOM      8  N   UNL     1     -47.243  29.674  24.080  1.00  0.00    -0.342 N 
ATOM      9  C   UNL     1     -48.291  31.138  25.308  1.00  0.00     0.092 A 
ATOM     10  C   UNL     1     -47.169  30.975  24.505  1.00  0.00     0.066 A 
ATOM     11  H   UNL     1     -46.582  29.212  23.474  1.00  0.00     0.168 HD
ATOM     12  C   UNL     1     -48.523  32.376  25.921  1.00  0.00     0.008 A 
ATOM     13  C   UNL     1     -46.249  31.994  24.261  1.00  0.00    -0.033 A 
ATOM     14  H   UNL     1     -49.391  32.516  26.555  1.00  0.00     0.069 H 
ATOM     15  C   UNL     1     -46.491  33.224  24.887  1.00  0.00    -0.018 A 
ATOM     16  H   UNL     1     -45.384  31.850  23.622  1.00  0.00     0.065 H 
ATOM     17  H   UNL     1     -45.795  34.037  24.700  1.00  0.00     0.066 H 
BRANCH   6  18
ATOM     18  C   UNL     1     -48.751  27.688  24.377  1.00  0.00     0.003 C 
ATOM     19  H   UNL     1     -48.761  27.484  23.301  1.00  0.00     0.035 H 
ATOM     20  H   UNL     1     -49.770  27.521  24.743  1.00  0.00     0.035 H 
BRANCH  18  21
ATOM     21  C   UNL     1     -47.801  26.726  25.071  1.00  0.00    -0.058 C 
ATOM     22  H   UNL     1     -46.969  26.450  24.414  1.00  0.00     0.023 H 
ATOM     23  H   UNL     1     -48.315  25.805  25.367  1.00  0.00     0.023 H 
ATOM     24  H   UNL     1     -47.384  27.188  25.972  1.00  0.00     0.023 H 
ENDBRANCH  18  21
ENDBRANCH   6  18
ENDBRANCH   4   5
ENDBRANCH   1   4
BRANCH   1  25
ATOM     25  C   UNL     1     -46.112  35.706  27.555  1.00  0.00     0.123 C 
ATOM     26  O   UNL     1     -45.603  37.050  27.706  1.00  0.00    -0.345 OA
ATOM     27  C   UNL     1     -46.983  35.458  28.786  1.00  0.00     0.119 C 
ATOM     28  H   UNL     1     -45.243  35.038  27.525  1.00  0.00     0.067 H 
ATOM     29  C   UNL     1     -46.476  37.761  28.620  1.00  0.00     0.169 C 
ATOM     30  C   UNL     1     -47.609  36.815  29.015  1.00  0.00     0.173 C 
ATOM     31  H   UNL     1     -47.723  34.667  28.628  1.00  0.00     0.066 H 
ATOM     32  H   UNL     1     -45.859  38.025  29.488  1.00  0.00     0.088 H 
ATOM     33  F   UNL     1     -48.675  36.927  28.172  1.00  0.00    -0.239 F 
ATOM     34  H   UNL     1     -47.960  36.984  30.037  1.00  0.00     0.074 H 
BRANCH  27  35
ATOM     35  O   UNL     1     -46.191  35.105  29.924  1.00  0.00    -0.387 OA
ATOM     36  H   UNL     1     -45.267  35.007  29.632  1.00  0.00     0.211 HD
ENDBRANCH  27  35
BRANCH  29  37
ATOM     37  N   UNL     1     -46.924  39.005  28.011  1.00  0.00    -0.302 N 
ATOM     38  C   UNL     1     -48.191  39.528  28.033  1.00  0.00     0.019 A 
ATOM     39  C   UNL     1     -46.098  39.835  27.295  1.00  0.00     0.148 A 
ATOM     40  C   UNL     1     -48.178  40.723  27.334  1.00  0.00     0.033 A 
ATOM     41  H   UNL     1     -49.002  39.005  28.523  1.00  0.00     0.083 H 
ATOM     42  C   UNL     1     -46.837  40.940  26.881  1.00  0.00     0.071 A 
ATOM     43  N   UNL     1     -44.796  39.600  27.062  1.00  0.00    -0.218 NA
ATOM     44  C   UNL     1     -46.126  41.918  26.164  1.00  0.00     0.137 A 
ATOM     45  C   UNL     1     -44.240  40.589  26.342  1.00  0.00     0.120 A 
ATOM     46  N   UNL     1     -44.821  41.710  25.885  1.00  0.00    -0.219 NA
ATOM     47  H   UNL     1     -43.188  40.471  26.102  1.00  0.00     0.106 H 
BRANCH  40  48
ATOM     48  C   UNL     1     -49.339  41.585  27.088  1.00  0.00     0.095 A 
ATOM     49  C   UNL     1     -50.311  41.913  28.062  1.00  0.00    -0.016 A 
ATOM     50  N   UNL     1     -49.629  42.134  25.899  1.00  0.00    -0.173 NA
ATOM     51  C   UNL     1     -51.222  42.708  27.406  1.00  0.00     0.025 A 
ATOM     52  H   UNL     1     -50.351  41.611  29.098  1.00  0.00     0.066 H 
ATOM     53  N   UNL     1     -50.773  42.807  26.124  1.00  0.00    -0.275 N 
ATOM     54  H   UNL     1     -52.132  43.186  27.741  1.00  0.00     0.084 H 
BRANCH  53  55
ATOM     55  C   UNL     1     -51.392  43.533  25.043  1.00  0.00     0.030 C 
ATOM     56  H   UNL     1     -50.934  44.521  24.958  1.00  0.00     0.048 H 
ATOM     57  H   UNL     1     -51.241  42.970  24.118  1.00  0.00     0.048 H 
ATOM     58  H   UNL     1     -52.459  43.633  25.263  1.00  0.00     0.048 H 
ENDBRANCH  53  55
ENDBRANCH  40  48
BRANCH  44  59
ATOM     59  N   UNL     1     -46.679  43.107  25.710  1.00  0.00    -0.383 N 
ATOM     60  H   UNL     1     -47.193  42.975  24.851  1.00  0.00     0.158 HD
ATOM     61  H   UNL     1     -47.148  43.627  26.458  1.00  0.00     0.158 HD
ENDBRANCH  44  59
ENDBRANCH  29  37
ENDBRANCH   1  25
TORSDOF 10
ENDMDL
MODEL 4
REMARK VINA RESULT:      -8.7      1.774      2.426
REMARK SMILES CCc1nc2cc(OC[C@H]3O[C@@H](n4cc(-c5ccn(C)n5)c5c(N)ncnc54)[C@@H](F)[C@@H]3O)ccc2[nH]1
REMARK SMILES IDX 9 1 8 4 7 5 3 6 4 7 36 8 5 9 35 10 6 12 34 13 33 15 2 18
REMARK SMILES IDX 1 21 10 25 11 26 31 27 12 29 29 30 30 33 32 35 13 37 14 38
REMARK SMILES IDX 28 39 15 40 22 42 27 43 23 44 26 45 25 46 16 48 17 49 21 50
REMARK SMILES IDX 18 51 19 53 20 55 24 59
REMARK H PARENT 9 2 9 3 36 11 6 14 34 16 33 17 2 19 2 20 1 22 1 23 1 24 10 28
REMARK H PARENT 31 31 12 32 29 34 32 36 14 41 26 47 17 52 18 54 20 56 20 57
REMARK H PARENT 20 58 24 60 24 61
REMARK Flexibility Score: inf
ROOT
ATOM      1  C   UNL     1     -46.089  35.006  28.189  1.00  0.00     0.117 C 
ATOM      2  H   UNL     1     -45.335  35.252  28.944  1.00  0.00     0.073 H 
ATOM      3  H   UNL     1     -45.778  35.388  27.211  1.00  0.00     0.073 H 
ENDROOT
BRANCH   1   4
ATOM      4  O   UNL     1     -46.245  33.583  28.090  1.00  0.00    -0.491 OA
BRANCH   4   5
ATOM      5  C   UNL     1     -46.568  33.117  26.841  1.00  0.00     0.121 A 
ATOM      6  C   UNL     1     -48.763  30.407  23.987  1.00  0.00     0.106 A 
ATOM      7  N   UNL     1     -48.788  30.543  25.297  1.00  0.00    -0.233 NA
ATOM      8  N   UNL     1     -47.890  31.301  23.418  1.00  0.00    -0.342 N 
ATOM      9  C   UNL     1     -47.903  31.555  25.582  1.00  0.00     0.092 A 
ATOM     10  C   UNL     1     -47.323  32.046  24.419  1.00  0.00     0.066 A 
ATOM     11  H   UNL     1     -47.696  31.390  22.432  1.00  0.00     0.168 HD
ATOM     12  C   UNL     1     -47.533  32.102  26.817  1.00  0.00     0.008 A 
ATOM     13  C   UNL     1     -46.383  33.076  24.408  1.00  0.00    -0.033 A 
ATOM     14  H   UNL     1     -47.974  31.725  27.733  1.00  0.00     0.069 H 
ATOM     15  C   UNL     1     -46.019  33.608  25.652  1.00  0.00    -0.018 A 
ATOM     16  H   UNL     1     -45.950  33.452  23.487  1.00  0.00     0.065 H 
ATOM     17  H   UNL     1     -45.300  34.422  25.667  1.00  0.00     0.066 H 
BRANCH   6  18
ATOM     18  C   UNL     1     -49.551  29.432  23.182  1.00  0.00     0.003 C 
ATOM     19  H   UNL     1     -48.948  28.543  22.969  1.00  0.00     0.035 H 
ATOM     20  H   UNL     1     -49.804  29.884  22.217  1.00  0.00     0.035 H 
BRANCH  18  21
ATOM     21  C   UNL     1     -50.827  29.024  23.899  1.00  0.00    -0.058 C 
ATOM     22  H   UNL     1     -51.669  29.657  23.599  1.00  0.00     0.023 H 
ATOM     23  H   UNL     1     -50.715  29.107  24.987  1.00  0.00     0.023 H 
ATOM     24  H   UNL     1     -51.081  27.986  23.662  1.00  0.00     0.023 H 
ENDBRANCH  18  21
ENDBRANCH   6  18
ENDBRANCH   4   5
ENDBRANCH   1   4
BRANCH   1  25
ATOM     25  C   UNL     1     -47.447  35.611  28.586  1.00  0.00     0.123 C 
ATOM     26  O   UNL     1     -47.229  36.920  29.157  1.00  0.00    -0.345 OA
ATOM     27  C   UNL     1     -48.371  35.836  27.390  1.00  0.00     0.119 C 
ATOM     28  H   UNL     1     -47.920  35.000  29.362  1.00  0.00     0.067 H 
ATOM     29  C   UNL     1     -47.517  37.911  28.138  1.00  0.00     0.169 C 
ATOM     30  C   UNL     1     -47.887  37.166  26.855  1.00  0.00     0.173 C 
ATOM     31  H   UNL     1     -48.310  35.031  26.650  1.00  0.00     0.066 H 
ATOM     32  H   UNL     1     -48.363  38.498  28.514  1.00  0.00     0.088 H 
ATOM     33  F   UNL     1     -46.793  36.926  26.079  1.00  0.00    -0.239 F 
ATOM     34  H   UNL     1     -48.623  37.706  26.254  1.00  0.00     0.074 H 
BRANCH  27  35
ATOM     35  O   UNL     1     -49.736  35.961  27.800  1.00  0.00    -0.387 OA
ATOM     36  H   UNL     1     -49.795  35.709  28.740  1.00  0.00     0.211 HD
ENDBRANCH  27  35
BRANCH  29  37
ATOM     37  N   UNL     1     -46.388  38.817  27.995  1.00  0.00    -0.302 N 
ATOM     38  C   UNL     1     -46.198  39.755  27.013  1.00  0.00     0.019 A 
ATOM     39  C   UNL     1     -45.320  38.836  28.857  1.00  0.00     0.148 A 
ATOM     40  C   UNL     1     -44.997  40.398  27.255  1.00  0.00     0.033 A 
ATOM     41  H   UNL     1     -46.917  39.877  26.212  1.00  0.00     0.083 H 
ATOM     42  C   UNL     1     -44.441  39.834  28.448  1.00  0.00     0.071 A 
ATOM     43  N   UNL     1     -45.181  38.021  29.917  1.00  0.00    -0.218 NA
ATOM     44  C   UNL     1     -43.303  40.016  29.252  1.00  0.00     0.137 A 
ATOM     45  C   UNL     1     -44.042  38.272  30.583  1.00  0.00     0.120 A 
ATOM     46  N   UNL     1     -43.111  39.202  30.313  1.00  0.00    -0.219 NA
ATOM     47  H   UNL     1     -43.849  37.649  31.451  1.00  0.00     0.106 H 
BRANCH  40  48
ATOM     48  C   UNL     1     -44.402  41.446  26.418  1.00  0.00     0.095 A 
ATOM     49  C   UNL     1     -45.107  42.185  25.440  1.00  0.00    -0.016 A 
ATOM     50  N   UNL     1     -43.108  41.799  26.463  1.00  0.00    -0.173 NA
ATOM     51  C   UNL     1     -44.174  43.027  24.883  1.00  0.00     0.025 A 
ATOM     52  H   UNL     1     -46.151  42.114  25.170  1.00  0.00     0.066 H 
ATOM     53  N   UNL     1     -43.002  42.757  25.523  1.00  0.00    -0.275 N 
ATOM     54  H   UNL     1     -44.250  43.766  24.098  1.00  0.00     0.084 H 
BRANCH  53  55
ATOM     55  C   UNL     1     -41.723  43.380  25.286  1.00  0.00     0.030 C 
ATOM     56  H   UNL     1     -41.178  43.464  26.230  1.00  0.00     0.048 H 
ATOM     57  H   UNL     1     -41.161  42.757  24.585  1.00  0.00     0.048 H 
ATOM     58  H   UNL     1     -41.897  44.373  24.865  1.00  0.00     0.048 H 
ENDBRANCH  53  55
ENDBRANCH  40  48
BRANCH  44  59
ATOM     59  N   UNL     1     -42.339  40.989  29.032  1.00  0.00    -0.383 N 
ATOM     60  H   UNL     1     -42.754  41.875  28.782  1.00  0.00     0.158 HD
ATOM     61  H   UNL     1     -41.625  41.000  29.767  1.00  0.00     0.158 HD
ENDBRANCH  44  59
ENDBRANCH  29  37
ENDBRANCH   1  25
TORSDOF 10
ENDMDL
MODEL 5
REMARK VINA RESULT:      -8.6      3.723      5.892
REMARK SMILES CCc1nc2cc(OC[C@H]3O[C@@H](n4cc(-c5ccn(C)n5)c5c(N)ncnc54)[C@@H](F)[C@@H]3O)ccc2[nH]1
REMARK SMILES IDX 9 1 8 4 7 5 3 6 4 7 36 8 5 9 35 10 6 12 34 13 33 15 2 18
REMARK SMILES IDX 1 21 10 25 11 26 31 27 12 29 29 30 30 33 32 35 13 37 14 38
REMARK SMILES IDX 28 39 15 40 22 42 27 43 23 44 26 45 25 46 16 48 17 49 21 50
REMARK SMILES IDX 18 51 19 53 20 55 24 59
REMARK H PARENT 9 2 9 3 36 11 6 14 34 16 33 17 2 19 2 20 1 22 1 23 1 24 10 28
REMARK H PARENT 31 31 12 32 29 34 32 36 14 41 26 47 17 52 18 54 20 56 20 57
REMARK H PARENT 20 58 24 60 24 61
REMARK Flexibility Score: inf
ROOT
ATOM      1  C   UNL     1     -47.724  37.208  27.317  1.00  0.00     0.117 C 
ATOM      2  H   UNL     1     -47.553  37.110  26.239  1.00  0.00     0.073 H 
ATOM      3  H   UNL     1     -47.708  38.265  27.603  1.00  0.00     0.073 H 
ENDROOT
BRANCH   1   4
ATOM      4  O   UNL     1     -49.004  36.664  27.667  1.00  0.00    -0.491 OA
BRANCH   4   5
ATOM      5  C   UNL     1     -49.939  37.583  28.066  1.00  0.00     0.121 A 
ATOM      6  C   UNL     1     -51.346  41.757  29.023  1.00  0.00     0.106 A 
ATOM      7  N   UNL     1     -50.206  41.272  28.577  1.00  0.00    -0.233 NA
ATOM      8  N   UNL     1     -52.267  40.754  29.205  1.00  0.00    -0.342 N 
ATOM      9  C   UNL     1     -50.395  39.915  28.469  1.00  0.00     0.092 A 
ATOM     10  C   UNL     1     -51.681  39.564  28.860  1.00  0.00     0.066 A 
ATOM     11  H   UNL     1     -53.211  40.873  29.539  1.00  0.00     0.168 HD
ATOM     12  C   UNL     1     -49.507  38.915  28.052  1.00  0.00     0.008 A 
ATOM     13  C   UNL     1     -52.150  38.251  28.855  1.00  0.00    -0.033 A 
ATOM     14  H   UNL     1     -48.499  39.174  27.749  1.00  0.00     0.069 H 
ATOM     15  C   UNL     1     -51.248  37.261  28.442  1.00  0.00    -0.018 A 
ATOM     16  H   UNL     1     -53.163  37.998  29.154  1.00  0.00     0.065 H 
ATOM     17  H   UNL     1     -51.596  36.233  28.416  1.00  0.00     0.066 H 
BRANCH   6  18
ATOM     18  C   UNL     1     -51.650  43.186  29.311  1.00  0.00     0.003 C 
ATOM     19  H   UNL     1     -52.542  43.263  29.943  1.00  0.00     0.035 H 
ATOM     20  H   UNL     1     -51.879  43.701  28.372  1.00  0.00     0.035 H 
BRANCH  18  21
ATOM     21  C   UNL     1     -50.480  43.875  29.993  1.00  0.00    -0.058 C 
ATOM     22  H   UNL     1     -50.059  43.248  30.786  1.00  0.00     0.023 H 
ATOM     23  H   UNL     1     -50.786  44.826  30.443  1.00  0.00     0.023 H 
ATOM     24  H   UNL     1     -49.686  44.082  29.267  1.00  0.00     0.023 H 
ENDBRANCH  18  21
ENDBRANCH   6  18
ENDBRANCH   4   5
ENDBRANCH   1   4
BRANCH   1  25
ATOM     25  C   UNL     1     -46.643  36.434  28.092  1.00  0.00     0.123 C 
ATOM     26  O   UNL     1     -45.347  36.980  27.764  1.00  0.00    -0.345 OA
ATOM     27  C   UNL     1     -46.777  36.583  29.608  1.00  0.00     0.119 C 
ATOM     28  H   UNL     1     -46.635  35.384  27.782  1.00  0.00     0.067 H 
ATOM     29  C   UNL     1     -44.944  37.864  28.840  1.00  0.00     0.169 C 
ATOM     30  C   UNL     1     -46.078  37.899  29.864  1.00  0.00     0.173 C 
ATOM     31  H   UNL     1     -47.819  36.581  29.943  1.00  0.00     0.066 H 
ATOM     32  H   UNL     1     -44.034  37.427  29.270  1.00  0.00     0.088 H 
ATOM     33  F   UNL     1     -46.965  38.899  29.598  1.00  0.00    -0.239 F 
ATOM     34  H   UNL     1     -45.714  38.026  30.888  1.00  0.00     0.074 H 
BRANCH  27  35
ATOM     35  O   UNL     1     -46.085  35.539  30.299  1.00  0.00    -0.387 OA
ATOM     36  H   UNL     1     -46.747  34.979  30.743  1.00  0.00     0.211 HD
ENDBRANCH  27  35
BRANCH  29  37
ATOM     37  N   UNL     1     -44.586  39.168  28.302  1.00  0.00    -0.302 N 
ATOM     38  C   UNL     1     -45.150  39.803  27.225  1.00  0.00     0.019 A 
ATOM     39  C   UNL     1     -43.587  39.952  28.823  1.00  0.00     0.148 A 
ATOM     40  C   UNL     1     -44.515  41.020  27.059  1.00  0.00     0.033 A 
ATOM     41  H   UNL     1     -45.940  39.333  26.652  1.00  0.00     0.083 H 
ATOM     42  C   UNL     1     -43.531  41.136  28.093  1.00  0.00     0.071 A 
ATOM     43  N   UNL     1     -42.817  39.611  29.870  1.00  0.00    -0.218 NA
ATOM     44  C   UNL     1     -42.579  42.077  28.524  1.00  0.00     0.137 A 
ATOM     45  C   UNL     1     -41.930  40.576  30.163  1.00  0.00     0.120 A 
ATOM     46  N   UNL     1     -41.767  41.765  29.557  1.00  0.00    -0.219 NA
ATOM     47  H   UNL     1     -41.262  40.375  30.993  1.00  0.00     0.106 H 
BRANCH  40  48
ATOM     48  C   UNL     1     -44.791  41.994  25.997  1.00  0.00     0.095 A 
ATOM     49  C   UNL     1     -44.035  42.115  24.808  1.00  0.00    -0.016 A 
ATOM     50  N   UNL     1     -45.775  42.904  26.048  1.00  0.00    -0.173 NA
ATOM     51  C   UNL     1     -44.614  43.154  24.117  1.00  0.00     0.025 A 
ATOM     52  H   UNL     1     -43.181  41.532  24.493  1.00  0.00     0.066 H 
ATOM     53  N   UNL     1     -45.642  43.590  24.898  1.00  0.00    -0.275 N 
ATOM     54  H   UNL     1     -44.374  43.608  23.167  1.00  0.00     0.084 H 
BRANCH  53  55
ATOM     55  C   UNL     1     -46.550  44.673  24.609  1.00  0.00     0.030 C 
ATOM     56  H   UNL     1     -47.509  44.266  24.281  1.00  0.00     0.048 H 
ATOM     57  H   UNL     1     -46.685  45.262  25.520  1.00  0.00     0.048 H 
ATOM     58  H   UNL     1     -46.112  45.285  23.816  1.00  0.00     0.048 H 
ENDBRANCH  53  55
ENDBRANCH  40  48
BRANCH  44  59
ATOM     59  N   UNL     1     -42.407  43.329  27.953  1.00  0.00    -0.383 N 
ATOM     60  H   UNL     1     -41.542  43.387  27.435  1.00  0.00     0.158 HD
ATOM     61  H   UNL     1     -43.255  43.660  27.481  1.00  0.00     0.158 HD
ENDBRANCH  44  59
ENDBRANCH  29  37
ENDBRANCH   1  25
TORSDOF 10
ENDMDL
MODEL 6
REMARK VINA RESULT:      -8.2      2.488      9.779
REMARK SMILES CCc1nc2cc(OC[C@H]3O[C@@H](n4cc(-c5ccn(C)n5)c5c(N)ncnc54)[C@@H](F)[C@@H]3O)ccc2[nH]1
REMARK SMILES IDX 9 1 8 4 7 5 3 6 4 7 36 8 5 9 35 10 6 12 34 13 33 15 2 18
REMARK SMILES IDX 1 21 10 25 11 26 31 27 12 29 29 30 30 33 32 35 13 37 14 38
REMARK SMILES IDX 28 39 15 40 22 42 27 43 23 44 26 45 25 46 16 48 17 49 21 50
REMARK SMILES IDX 18 51 19 53 20 55 24 59
REMARK H PARENT 9 2 9 3 36 11 6 14 34 16 33 17 2 19 2 20 1 22 1 23 1 24 10 28
REMARK H PARENT 31 31 12 32 29 34 32 36 14 41 26 47 17 52 18 54 20 56 20 57
REMARK H PARENT 20 58 24 60 24 61
REMARK Flexibility Score: inf
ROOT
ATOM      1  C   UNL     1     -45.580  39.376  27.123  1.00  0.00     0.117 C 
ATOM      2  H   UNL     1     -46.109  40.252  26.730  1.00  0.00     0.073 H 
ATOM      3  H   UNL     1     -45.936  38.469  26.623  1.00  0.00     0.073 H 
ENDROOT
BRANCH   1   4
ATOM      4  O   UNL     1     -44.171  39.501  26.886  1.00  0.00    -0.491 OA
BRANCH   4   5
ATOM      5  C   UNL     1     -43.756  40.742  26.477  1.00  0.00     0.121 A 
ATOM      6  C   UNL     1     -43.991  44.429  23.895  1.00  0.00     0.106 A 
ATOM      7  N   UNL     1     -44.722  43.337  23.972  1.00  0.00    -0.233 NA
ATOM      8  N   UNL     1     -42.972  44.402  24.816  1.00  0.00    -0.342 N 
ATOM      9  C   UNL     1     -44.158  42.581  24.971  1.00  0.00     0.092 A 
ATOM     10  C   UNL     1     -43.055  43.226  25.515  1.00  0.00     0.066 A 
ATOM     11  H   UNL     1     -42.279  45.123  24.950  1.00  0.00     0.168 HD
ATOM     12  C   UNL     1     -44.529  41.322  25.463  1.00  0.00     0.008 A 
ATOM     13  C   UNL     1     -42.286  42.689  26.547  1.00  0.00    -0.033 A 
ATOM     14  H   UNL     1     -45.384  40.805  25.044  1.00  0.00     0.069 H 
ATOM     15  C   UNL     1     -42.665  41.427  27.023  1.00  0.00    -0.018 A 
ATOM     16  H   UNL     1     -41.434  43.214  26.966  1.00  0.00     0.065 H 
ATOM     17  H   UNL     1     -42.090  40.995  27.836  1.00  0.00     0.066 H 
BRANCH   6  18
ATOM     18  C   UNL     1     -44.193  45.568  22.957  1.00  0.00     0.003 C 
ATOM     19  H   UNL     1     -44.151  46.518  23.501  1.00  0.00     0.035 H 
ATOM     20  H   UNL     1     -45.193  45.497  22.515  1.00  0.00     0.035 H 
BRANCH  18  21
ATOM     21  C   UNL     1     -43.151  45.566  21.851  1.00  0.00    -0.058 C 
ATOM     22  H   UNL     1     -42.515  46.456  21.905  1.00  0.00     0.023 H 
ATOM     23  H   UNL     1     -43.622  45.550  20.861  1.00  0.00     0.023 H 
ATOM     24  H   UNL     1     -42.508  44.684  21.935  1.00  0.00     0.023 H 
ENDBRANCH  18  21
ENDBRANCH   6  18
ENDBRANCH   4   5
ENDBRANCH   1   4
BRANCH   1  25
ATOM     25  C   UNL     1     -45.805  39.265  28.641  1.00  0.00     0.123 C 
ATOM     26  O   UNL     1     -47.031  38.541  28.884  1.00  0.00    -0.345 OA
ATOM     27  C   UNL     1     -44.712  38.464  29.347  1.00  0.00     0.119 C 
ATOM     28  H   UNL     1     -45.931  40.262  29.078  1.00  0.00     0.067 H 
ATOM     29  C   UNL     1     -46.688  37.173  29.220  1.00  0.00     0.169 C 
ATOM     30  C   UNL     1     -45.168  37.038  29.134  1.00  0.00     0.173 C 
ATOM     31  H   UNL     1     -43.714  38.658  28.940  1.00  0.00     0.066 H 
ATOM     32  H   UNL     1     -47.043  37.013  30.246  1.00  0.00     0.088 H 
ATOM     33  F   UNL     1     -44.768  36.658  27.888  1.00  0.00    -0.239 F 
ATOM     34  H   UNL     1     -44.769  36.322  29.857  1.00  0.00     0.074 H 
BRANCH  27  35
ATOM     35  O   UNL     1     -44.681  38.744  30.750  1.00  0.00    -0.387 OA
ATOM     36  H   UNL     1     -44.438  39.680  30.867  1.00  0.00     0.211 HD
ENDBRANCH  27  35
BRANCH  29  37
ATOM     37  N   UNL     1     -47.417  36.253  28.360  1.00  0.00    -0.302 N 
ATOM     38  C   UNL     1     -46.914  35.163  27.698  1.00  0.00     0.019 A 
ATOM     39  C   UNL     1     -48.756  36.379  28.082  1.00  0.00     0.148 A 
ATOM     40  C   UNL     1     -47.947  34.568  26.996  1.00  0.00     0.033 A 
ATOM     41  H   UNL     1     -45.863  34.909  27.761  1.00  0.00     0.083 H 
ATOM     42  C   UNL     1     -49.135  35.325  27.257  1.00  0.00     0.071 A 
ATOM     43  N   UNL     1     -49.543  37.361  28.554  1.00  0.00    -0.218 NA
ATOM     44  C   UNL     1     -50.496  35.279  26.907  1.00  0.00     0.137 A 
ATOM     45  C   UNL     1     -50.809  37.224  28.124  1.00  0.00     0.120 A 
ATOM     46  N   UNL     1     -51.318  36.260  27.338  1.00  0.00    -0.219 NA
ATOM     47  H   UNL     1     -51.510  37.984  28.453  1.00  0.00     0.106 H 
BRANCH  40  48
ATOM     48  C   UNL     1     -47.828  33.393  26.125  1.00  0.00     0.095 A 
ATOM     49  C   UNL     1     -46.836  33.234  25.130  1.00  0.00    -0.016 A 
ATOM     50  N   UNL     1     -48.668  32.348  26.153  1.00  0.00    -0.173 NA
ATOM     51  C   UNL     1     -47.107  32.020  24.542  1.00  0.00     0.025 A 
ATOM     52  H   UNL     1     -46.035  33.910  24.867  1.00  0.00     0.066 H 
ATOM     53  N   UNL     1     -48.206  31.536  25.185  1.00  0.00    -0.275 N 
ATOM     54  H   UNL     1     -46.624  31.488  23.736  1.00  0.00     0.084 H 
BRANCH  53  55
ATOM     55  C   UNL     1     -48.882  30.289  24.923  1.00  0.00     0.030 C 
ATOM     56  H   UNL     1     -48.215  29.456  25.158  1.00  0.00     0.048 H 
ATOM     57  H   UNL     1     -49.774  30.242  25.553  1.00  0.00     0.048 H 
ATOM     58  H   UNL     1     -49.156  30.262  23.865  1.00  0.00     0.048 H 
ENDBRANCH  53  55
ENDBRANCH  40  48
BRANCH  44  59
ATOM     59  N   UNL     1     -51.069  34.281  26.132  1.00  0.00    -0.383 N 
ATOM     60  H   UNL     1     -50.429  33.939  25.431  1.00  0.00     0.158 HD
ATOM     61  H   UNL     1     -51.554  33.580  26.702  1.00  0.00     0.158 HD
ENDBRANCH  44  59
ENDBRANCH  29  37
ENDBRANCH   1  25
TORSDOF 10
ENDMDL
MODEL 7
REMARK VINA RESULT:      -8.1      3.333      6.512
REMARK SMILES CCc1nc2cc(OC[C@H]3O[C@@H](n4cc(-c5ccn(C)n5)c5c(N)ncnc54)[C@@H](F)[C@@H]3O)ccc2[nH]1
REMARK SMILES IDX 9 1 8 4 7 5 3 6 4 7 36 8 5 9 35 10 6 12 34 13 33 15 2 18
REMARK SMILES IDX 1 21 10 25 11 26 31 27 12 29 29 30 30 33 32 35 13 37 14 38
REMARK SMILES IDX 28 39 15 40 22 42 27 43 23 44 26 45 25 46 16 48 17 49 21 50
REMARK SMILES IDX 18 51 19 53 20 55 24 59
REMARK H PARENT 9 2 9 3 36 11 6 14 34 16 33 17 2 19 2 20 1 22 1 23 1 24 10 28
REMARK H PARENT 31 31 12 32 29 34 32 36 14 41 26 47 17 52 18 54 20 56 20 57
REMARK H PARENT 20 58 24 60 24 61
REMARK Flexibility Score: inf
ROOT
ATOM      1  C   UNL     1     -43.675  41.100  27.996  1.00  0.00     0.117 C 
ATOM      2  H   UNL     1     -43.717  41.997  28.623  1.00  0.00     0.073 H 
ATOM      3  H   UNL     1     -43.152  40.296  28.525  1.00  0.00     0.073 H 
ENDROOT
BRANCH   1   4
ATOM      4  O   UNL     1     -45.002  40.649  27.689  1.00  0.00    -0.491 OA
BRANCH   4   5
ATOM      5  C   UNL     1     -45.247  39.327  27.959  1.00  0.00     0.121 A 
ATOM      6  C   UNL     1     -47.046  35.291  27.073  1.00  0.00     0.106 A 
ATOM      7  N   UNL     1     -47.044  36.437  26.424  1.00  0.00    -0.233 NA
ATOM      8  N   UNL     1     -46.333  35.389  28.243  1.00  0.00    -0.342 N 
ATOM      9  C   UNL     1     -46.307  37.301  27.198  1.00  0.00     0.092 A 
ATOM     10  C   UNL     1     -45.852  36.668  28.348  1.00  0.00     0.066 A 
ATOM     11  H   UNL     1     -46.191  34.647  28.912  1.00  0.00     0.168 HD
ATOM     12  C   UNL     1     -45.994  38.650  26.987  1.00  0.00     0.008 A 
ATOM     13  C   UNL     1     -45.080  37.307  29.317  1.00  0.00    -0.033 A 
ATOM     14  H   UNL     1     -46.347  39.158  26.096  1.00  0.00     0.069 H 
ATOM     15  C   UNL     1     -44.780  38.658  29.095  1.00  0.00    -0.018 A 
ATOM     16  H   UNL     1     -44.725  36.791  30.204  1.00  0.00     0.065 H 
ATOM     17  H   UNL     1     -44.168  39.172  29.830  1.00  0.00     0.066 H 
BRANCH   6  18
ATOM     18  C   UNL     1     -47.717  34.032  26.647  1.00  0.00     0.003 C 
ATOM     19  H   UNL     1     -48.767  34.226  26.403  1.00  0.00     0.035 H 
ATOM     20  H   UNL     1     -47.709  33.320  27.479  1.00  0.00     0.035 H 
BRANCH  18  21
ATOM     21  C   UNL     1     -47.020  33.412  25.447  1.00  0.00    -0.058 C 
ATOM     22  H   UNL     1     -45.969  33.715  25.399  1.00  0.00     0.023 H 
ATOM     23  H   UNL     1     -47.500  33.715  24.509  1.00  0.00     0.023 H 
ATOM     24  H   UNL     1     -47.056  32.319  25.508  1.00  0.00     0.023 H 
ENDBRANCH  18  21
ENDBRANCH   6  18
ENDBRANCH   4   5
ENDBRANCH   1   4
BRANCH   1  25
ATOM     25  C   UNL     1     -42.957  41.417  26.673  1.00  0.00     0.123 C 
ATOM     26  O   UNL     1     -43.944  41.590  25.631  1.00  0.00    -0.345 OA
ATOM     27  C   UNL     1     -42.178  42.731  26.719  1.00  0.00     0.119 C 
ATOM     28  H   UNL     1     -42.324  40.574  26.375  1.00  0.00     0.067 H 
ATOM     29  C   UNL     1     -44.138  43.012  25.425  1.00  0.00     0.169 C 
ATOM     30  C   UNL     1     -43.254  43.753  26.428  1.00  0.00     0.173 C 
ATOM     31  H   UNL     1     -41.682  42.896  27.680  1.00  0.00     0.066 H 
ATOM     32  H   UNL     1     -43.824  43.216  24.394  1.00  0.00     0.088 H 
ATOM     33  F   UNL     1     -43.916  44.001  27.594  1.00  0.00    -0.239 F 
ATOM     34  H   UNL     1     -42.882  44.704  26.037  1.00  0.00     0.074 H 
BRANCH  27  35
ATOM     35  O   UNL     1     -41.185  42.787  25.690  1.00  0.00    -0.387 OA
ATOM     36  H   UNL     1     -40.891  41.877  25.503  1.00  0.00     0.211 HD
ENDBRANCH  27  35
BRANCH  29  37
ATOM     37  N   UNL     1     -45.552  43.339  25.522  1.00  0.00    -0.302 N 
ATOM     38  C   UNL     1     -46.497  42.710  26.292  1.00  0.00     0.019 A 
ATOM     39  C   UNL     1     -46.144  44.354  24.812  1.00  0.00     0.148 A 
ATOM     40  C   UNL     1     -47.711  43.340  26.087  1.00  0.00     0.033 A 
ATOM     41  H   UNL     1     -46.237  41.857  26.906  1.00  0.00     0.083 H 
ATOM     42  C   UNL     1     -47.490  44.409  25.161  1.00  0.00     0.071 A 
ATOM     43  N   UNL     1     -45.500  45.151  23.942  1.00  0.00    -0.218 NA
ATOM     44  C   UNL     1     -48.240  45.429  24.550  1.00  0.00     0.137 A 
ATOM     45  C   UNL     1     -46.330  46.060  23.403  1.00  0.00     0.120 A 
ATOM     46  N   UNL     1     -47.640  46.237  23.649  1.00  0.00    -0.219 NA
ATOM     47  H   UNL     1     -45.890  46.739  22.681  1.00  0.00     0.106 H 
BRANCH  40  48
ATOM     48  C   UNL     1     -48.990  42.953  26.693  1.00  0.00     0.095 A 
ATOM     49  C   UNL     1     -49.515  43.517  27.879  1.00  0.00    -0.016 A 
ATOM     50  N   UNL     1     -49.793  41.995  26.207  1.00  0.00    -0.173 NA
ATOM     51  C   UNL     1     -50.700  42.854  28.099  1.00  0.00     0.025 A 
ATOM     52  H   UNL     1     -49.090  44.295  28.497  1.00  0.00     0.066 H 
ATOM     53  N   UNL     1     -50.818  41.959  27.080  1.00  0.00    -0.275 N 
ATOM     54  H   UNL     1     -51.438  42.942  28.884  1.00  0.00     0.084 H 
BRANCH  53  55
ATOM     55  C   UNL     1     -51.895  41.022  26.871  1.00  0.00     0.030 C 
ATOM     56  H   UNL     1     -51.672  40.089  27.393  1.00  0.00     0.048 H 
ATOM     57  H   UNL     1     -52.815  41.461  27.265  1.00  0.00     0.048 H 
ATOM     58  H   UNL     1     -51.985  40.837  25.797  1.00  0.00     0.048 H 
ENDBRANCH  53  55
ENDBRANCH  40  48
BRANCH  44  59
ATOM     59  N   UNL     1     -49.582  45.670  24.806  1.00  0.00    -0.383 N 
ATOM     60  H   UNL     1     -49.709  46.480  25.395  1.00  0.00     0.158 HD
ATOM     61  H   UNL     1     -50.153  45.618  23.956  1.00  0.00     0.158 HD
ENDBRANCH  44  59
ENDBRANCH  29  37
ENDBRANCH   1  25
TORSDOF 10
ENDMDL
