MODEL 1
REMARK VINA RESULT:     -10.6      0.000      0.000
REMARK SMILES CNc1ccc2ccc(OC[C@H]3O[C@@H](n4cc(C5CCCC5)c5c(N)ncnc54)[C@@H](F)[C@@H]3O)cc2n1
REMARK SMILES IDX 11 1 10 4 9 5 3 6 4 7 36 8 5 9 35 11 6 12 34 14 7 15 8 17
REMARK SMILES IDX 2 20 1 22 12 26 13 27 32 28 14 30 30 31 31 34 33 36 15 38
REMARK SMILES IDX 16 39 29 40 17 41 23 43 28 44 24 45 27 46 26 47 18 49 19 50
REMARK SMILES IDX 22 51 20 53 21 56 25 63
REMARK H PARENT 11 2 11 3 4 10 5 13 34 16 7 18 8 19 2 21 1 23 1 24 1 25 12 29
REMARK H PARENT 32 32 14 33 30 35 33 37 16 42 27 48 18 52 19 54 19 55 22 57
REMARK H PARENT 22 58 20 59 20 60 21 61 21 62 25 64 25 65
REMARK Flexibility Score: inf
ROOT
ATOM      1  C   UNL     1     -45.546  35.129  27.656  1.00  0.00     0.117 C 
ATOM      2  H   UNL     1     -45.759  34.130  28.052  1.00  0.00     0.073 H 
ATOM      3  H   UNL     1     -44.504  35.116  27.316  1.00  0.00     0.073 H 
ENDROOT
BRANCH   1   4
ATOM      4  O   UNL     1     -46.476  35.338  26.586  1.00  0.00    -0.491 OA
BRANCH   4   5
ATOM      5  C   UNL     1     -47.040  34.223  26.035  1.00  0.00     0.121 A 
ATOM      6  C   UNL     1     -47.135  30.608  22.947  1.00  0.00     0.126 A 
ATOM      7  C   UNL     1     -48.413  30.236  23.351  1.00  0.00    -0.019 A 
ATOM      8  N   UNL     1     -46.492  31.646  23.514  1.00  0.00    -0.231 NA
ATOM      9  C   UNL     1     -49.056  30.968  24.344  1.00  0.00    -0.049 A 
ATOM     10  H   UNL     1     -48.903  29.378  22.904  1.00  0.00     0.066 H 
ATOM     11  C   UNL     1     -47.105  32.361  24.474  1.00  0.00     0.076 A 
ATOM     12  C   UNL     1     -48.404  32.057  24.924  1.00  0.00     0.001 A 
ATOM     13  H   UNL     1     -50.056  30.681  24.657  1.00  0.00     0.063 H 
ATOM     14  C   UNL     1     -46.445  33.445  25.040  1.00  0.00     0.007 A 
ATOM     15  C   UNL     1     -49.013  32.842  25.916  1.00  0.00    -0.049 A 
ATOM     16  H   UNL     1     -45.460  33.689  24.655  1.00  0.00     0.069 H 
ATOM     17  C   UNL     1     -48.332  33.929  26.460  1.00  0.00    -0.019 A 
ATOM     18  H   UNL     1     -50.019  32.618  26.262  1.00  0.00     0.063 H 
ATOM     19  H   UNL     1     -48.809  34.546  27.217  1.00  0.00     0.066 H 
BRANCH   6  20
ATOM     20  N   UNL     1     -46.510  29.834  21.951  1.00  0.00    -0.373 N 
ATOM     21  H   UNL     1     -46.505  30.360  21.083  1.00  0.00     0.161 HD
BRANCH  20  22
ATOM     22  C   UNL     1     -45.175  29.377  22.309  1.00  0.00     0.005 C 
ATOM     23  H   UNL     1     -45.059  29.285  23.395  1.00  0.00     0.045 H 
ATOM     24  H   UNL     1     -44.401  30.041  21.910  1.00  0.00     0.045 H 
ATOM     25  H   UNL     1     -45.014  28.384  21.879  1.00  0.00     0.045 H 
ENDBRANCH  20  22
ENDBRANCH   6  20
ENDBRANCH   4   5
ENDBRANCH   1   4
BRANCH   1  26
ATOM     26  C   UNL     1     -45.739  36.155  28.775  1.00  0.00     0.123 C 
ATOM     27  O   UNL     1     -44.640  37.084  28.838  1.00  0.00    -0.345 OA
ATOM     28  C   UNL     1     -46.987  37.012  28.637  1.00  0.00     0.119 C 
ATOM     29  H   UNL     1     -45.754  35.610  29.728  1.00  0.00     0.067 H 
ATOM     30  C   UNL     1     -45.153  38.324  29.396  1.00  0.00     0.169 C 
ATOM     31  C   UNL     1     -46.661  38.163  29.565  1.00  0.00     0.173 C 
ATOM     32  H   UNL     1     -47.136  37.383  27.617  1.00  0.00     0.066 H 
ATOM     33  H   UNL     1     -44.664  38.457  30.368  1.00  0.00     0.088 H 
ATOM     34  F   UNL     1     -47.379  39.253  29.205  1.00  0.00    -0.239 F 
ATOM     35  H   UNL     1     -46.919  37.919  30.601  1.00  0.00     0.074 H 
BRANCH  28  36
ATOM     36  O   UNL     1     -48.158  36.310  29.041  1.00  0.00    -0.387 OA
ATOM     37  H   UNL     1     -48.140  36.274  30.017  1.00  0.00     0.211 HD
ENDBRANCH  28  36
BRANCH  30  38
ATOM     38  N   UNL     1     -44.759  39.437  28.547  1.00  0.00    -0.303 N 
ATOM     39  C   UNL     1     -45.405  39.891  27.427  1.00  0.00     0.013 A 
ATOM     40  C   UNL     1     -43.648  40.206  28.777  1.00  0.00     0.147 A 
ATOM     41  C   UNL     1     -44.675  40.938  26.884  1.00  0.00    -0.014 A 
ATOM     42  H   UNL     1     -46.315  39.420  27.083  1.00  0.00     0.082 H 
ATOM     43  C   UNL     1     -43.569  41.167  27.775  1.00  0.00     0.065 A 
ATOM     44  N   UNL     1     -42.798  40.042  29.806  1.00  0.00    -0.218 NA
ATOM     45  C   UNL     1     -42.492  42.067  27.870  1.00  0.00     0.136 A 
ATOM     46  C   UNL     1     -41.809  40.948  29.776  1.00  0.00     0.120 A 
ATOM     47  N   UNL     1     -41.615  41.938  28.885  1.00  0.00    -0.219 NA
ATOM     48  H   UNL     1     -41.073  40.879  30.570  1.00  0.00     0.106 H 
BRANCH  41  49
ATOM     49  C   UNL     1     -44.995  41.686  25.618  1.00  0.00    -0.014 C 
ATOM     50  C   UNL     1     -45.681  43.049  25.842  1.00  0.00    -0.046 C 
ATOM     51  C   UNL     1     -43.730  41.991  24.795  1.00  0.00    -0.046 C 
ATOM     52  H   UNL     1     -45.684  41.080  25.018  1.00  0.00     0.035 H 
ATOM     53  C   UNL     1     -44.628  44.090  25.490  1.00  0.00    -0.053 C 
ATOM     54  H   UNL     1     -46.086  43.193  26.847  1.00  0.00     0.027 H 
ATOM     55  H   UNL     1     -46.521  43.145  25.142  1.00  0.00     0.027 H 
ATOM     56  C   UNL     1     -43.872  43.440  24.346  1.00  0.00    -0.053 C 
ATOM     57  H   UNL     1     -42.819  41.883  25.397  1.00  0.00     0.027 H 
ATOM     58  H   UNL     1     -43.632  41.317  23.938  1.00  0.00     0.027 H 
ATOM     59  H   UNL     1     -45.073  45.049  25.205  1.00  0.00     0.027 H 
ATOM     60  H   UNL     1     -43.958  44.259  26.340  1.00  0.00     0.027 H 
ATOM     61  H   UNL     1     -44.460  43.492  23.422  1.00  0.00     0.027 H 
ATOM     62  H   UNL     1     -42.905  43.914  24.161  1.00  0.00     0.027 H 
ENDBRANCH  41  49
BRANCH  45  63
ATOM     63  N   UNL     1     -42.275  43.130  27.000  1.00  0.00    -0.383 N 
ATOM     64  H   UNL     1     -43.160  43.421  26.601  1.00  0.00     0.158 HD
ATOM     65  H   UNL     1     -41.535  42.960  26.334  1.00  0.00     0.158 HD
ENDBRANCH  45  63
ENDBRANCH  30  38
ENDBRANCH   1  26
TORSDOF 9
ENDMDL
MODEL 2
REMARK VINA RESULT:     -10.1      2.379      3.990
REMARK SMILES CNc1ccc2ccc(OC[C@H]3O[C@@H](n4cc(C5CCCC5)c5c(N)ncnc54)[C@@H](F)[C@@H]3O)cc2n1
REMARK SMILES IDX 11 1 10 4 9 5 3 6 4 7 36 8 5 9 35 11 6 12 34 14 7 15 8 17
REMARK SMILES IDX 2 20 1 22 12 26 13 27 32 28 14 30 30 31 31 34 33 36 15 38
REMARK SMILES IDX 16 39 29 40 17 41 23 43 28 44 24 45 27 46 26 47 18 49 19 50
REMARK SMILES IDX 22 51 20 53 21 56 25 63
REMARK H PARENT 11 2 11 3 4 10 5 13 34 16 7 18 8 19 2 21 1 23 1 24 1 25 12 29
REMARK H PARENT 32 32 14 33 30 35 33 37 16 42 27 48 18 52 19 54 19 55 22 57
REMARK H PARENT 22 58 20 59 20 60 21 61 21 62 25 64 25 65
REMARK Flexibility Score: inf
ROOT
ATOM      1  C   UNL     1     -46.063  38.149  28.532  1.00  0.00     0.117 C 
ATOM      2  H   UNL     1     -46.505  38.776  29.314  1.00  0.00     0.073 H 
ATOM      3  H   UNL     1     -45.804  37.194  29.003  1.00  0.00     0.073 H 
ENDROOT
BRANCH   1   4
ATOM      4  O   UNL     1     -47.065  38.013  27.517  1.00  0.00    -0.491 OA
BRANCH   4   5
ATOM      5  C   UNL     1     -47.414  36.741  27.163  1.00  0.00     0.121 A 
ATOM      6  C   UNL     1     -46.603  32.556  25.054  1.00  0.00     0.126 A 
ATOM      7  C   UNL     1     -47.897  32.119  25.321  1.00  0.00    -0.019 A 
ATOM      8  N   UNL     1     -46.173  33.768  25.455  1.00  0.00    -0.231 NA
ATOM      9  C   UNL     1     -48.778  32.962  25.991  1.00  0.00    -0.049 A 
ATOM     10  H   UNL     1     -48.216  31.128  25.017  1.00  0.00     0.066 H 
ATOM     11  C   UNL     1     -47.017  34.590  26.103  1.00  0.00     0.076 A 
ATOM     12  C   UNL     1     -48.347  34.227  26.393  1.00  0.00     0.001 A 
ATOM     13  H   UNL     1     -49.790  32.623  26.196  1.00  0.00     0.063 H 
ATOM     14  C   UNL     1     -46.575  35.848  26.494  1.00  0.00     0.007 A 
ATOM     15  C   UNL     1     -49.199  35.123  27.056  1.00  0.00    -0.049 A 
ATOM     16  H   UNL     1     -45.560  36.127  26.228  1.00  0.00     0.069 H 
ATOM     17  C   UNL     1     -48.732  36.382  27.429  1.00  0.00    -0.019 A 
ATOM     18  H   UNL     1     -50.229  34.853  27.276  1.00  0.00     0.063 H 
ATOM     19  H   UNL     1     -49.396  37.083  27.927  1.00  0.00     0.066 H 
BRANCH   6  20
ATOM     20  N   UNL     1     -45.735  31.671  24.389  1.00  0.00    -0.373 N 
ATOM     21  H   UNL     1     -45.364  31.008  25.063  1.00  0.00     0.161 HD
BRANCH  20  22
ATOM     22  C   UNL     1     -46.338  30.996  23.249  1.00  0.00     0.005 C 
ATOM     23  H   UNL     1     -47.418  31.177  23.200  1.00  0.00     0.045 H 
ATOM     24  H   UNL     1     -46.144  29.918  23.269  1.00  0.00     0.045 H 
ATOM     25  H   UNL     1     -45.898  31.395  22.329  1.00  0.00     0.045 H 
ENDBRANCH  20  22
ENDBRANCH   6  20
ENDBRANCH   4   5
ENDBRANCH   1   4
BRANCH   1  26
ATOM     26  C   UNL     1     -44.810  38.844  27.992  1.00  0.00     0.123 C 
ATOM     27  O   UNL     1     -45.060  39.477  26.723  1.00  0.00    -0.345 OA
ATOM     28  C   UNL     1     -44.261  39.940  28.891  1.00  0.00     0.119 C 
ATOM     29  H   UNL     1     -44.048  38.073  27.822  1.00  0.00     0.067 H 
ATOM     30  C   UNL     1     -44.136  40.592  26.605  1.00  0.00     0.169 C 
ATOM     31  C   UNL     1     -43.377  40.701  27.924  1.00  0.00     0.173 C 
ATOM     32  H   UNL     1     -45.044  40.600  29.281  1.00  0.00     0.066 H 
ATOM     33  H   UNL     1     -43.455  40.351  25.782  1.00  0.00     0.088 H 
ATOM     34  F   UNL     1     -43.210  41.970  28.365  1.00  0.00    -0.239 F 
ATOM     35  H   UNL     1     -42.387  40.239  27.850  1.00  0.00     0.074 H 
BRANCH  28  36
ATOM     36  O   UNL     1     -43.526  39.408  29.988  1.00  0.00    -0.387 OA
ATOM     37  H   UNL     1     -44.175  38.973  30.574  1.00  0.00     0.211 HD
ENDBRANCH  28  36
BRANCH  30  38
ATOM     38  N   UNL     1     -44.870  41.791  26.234  1.00  0.00    -0.303 N 
ATOM     39  C   UNL     1     -46.201  42.043  26.440  1.00  0.00     0.013 A 
ATOM     40  C   UNL     1     -44.293  42.868  25.612  1.00  0.00     0.147 A 
ATOM     41  C   UNL     1     -46.512  43.279  25.894  1.00  0.00    -0.014 A 
ATOM     42  H   UNL     1     -46.833  41.316  26.930  1.00  0.00     0.082 H 
ATOM     43  C   UNL     1     -45.277  43.827  25.399  1.00  0.00     0.065 A 
ATOM     44  N   UNL     1     -42.993  42.959  25.278  1.00  0.00    -0.218 NA
ATOM     45  C   UNL     1     -44.851  45.020  24.787  1.00  0.00     0.136 A 
ATOM     46  C   UNL     1     -42.717  44.132  24.689  1.00  0.00     0.120 A 
ATOM     47  N   UNL     1     -43.557  45.152  24.435  1.00  0.00    -0.219 NA
ATOM     48  H   UNL     1     -41.688  44.281  24.381  1.00  0.00     0.106 H 
BRANCH  41  49
ATOM     49  C   UNL     1     -47.875  43.917  25.846  1.00  0.00    -0.014 C 
ATOM     50  C   UNL     1     -49.039  42.949  26.137  1.00  0.00    -0.046 C 
ATOM     51  C   UNL     1     -48.015  45.054  26.875  1.00  0.00    -0.046 C 
ATOM     52  H   UNL     1     -48.038  44.315  24.837  1.00  0.00     0.035 H 
ATOM     53  C   UNL     1     -49.555  43.346  27.512  1.00  0.00    -0.053 C 
ATOM     54  H   UNL     1     -48.774  41.890  26.084  1.00  0.00     0.027 H 
ATOM     55  H   UNL     1     -49.835  43.116  25.399  1.00  0.00     0.027 H 
ATOM     56  C   UNL     1     -49.379  44.853  27.524  1.00  0.00    -0.053 C 
ATOM     57  H   UNL     1     -47.234  45.002  27.643  1.00  0.00     0.027 H 
ATOM     58  H   UNL     1     -47.940  46.039  26.403  1.00  0.00     0.027 H 
ATOM     59  H   UNL     1     -50.596  43.046  27.667  1.00  0.00     0.027 H 
ATOM     60  H   UNL     1     -48.944  42.887  28.297  1.00  0.00     0.027 H 
ATOM     61  H   UNL     1     -50.158  45.332  26.919  1.00  0.00     0.027 H 
ATOM     62  H   UNL     1     -49.424  45.272  28.532  1.00  0.00     0.027 H 
ENDBRANCH  41  49
BRANCH  45  63
ATOM     63  N   UNL     1     -45.670  46.116  24.543  1.00  0.00    -0.383 N 
ATOM     64  H   UNL     1     -45.852  46.184  23.548  1.00  0.00     0.158 HD
ATOM     65  H   UNL     1     -45.346  46.966  24.982  1.00  0.00     0.158 HD
ENDBRANCH  45  63
ENDBRANCH  30  38
ENDBRANCH   1  26
TORSDOF 9
ENDMDL
MODEL 3
REMARK VINA RESULT:     -10.0      2.989      4.446
REMARK SMILES CNc1ccc2ccc(OC[C@H]3O[C@@H](n4cc(C5CCCC5)c5c(N)ncnc54)[C@@H](F)[C@@H]3O)cc2n1
REMARK SMILES IDX 11 1 10 4 9 5 3 6 4 7 36 8 5 9 35 11 6 12 34 14 7 15 8 17
REMARK SMILES IDX 2 20 1 22 12 26 13 27 32 28 14 30 30 31 31 34 33 36 15 38
REMARK SMILES IDX 16 39 29 40 17 41 23 43 28 44 24 45 27 46 26 47 18 49 19 50
REMARK SMILES IDX 22 51 20 53 21 56 25 63
REMARK H PARENT 11 2 11 3 4 10 5 13 34 16 7 18 8 19 2 21 1 23 1 24 1 25 12 29
REMARK H PARENT 32 32 14 33 30 35 33 37 16 42 27 48 18 52 19 54 19 55 22 57
REMARK H PARENT 22 58 20 59 20 60 21 61 21 62 25 64 25 65
REMARK Flexibility Score: inf
ROOT
ATOM      1  C   UNL     1     -47.739  34.690  26.738  1.00  0.00     0.117 C 
ATOM      2  H   UNL     1     -47.723  34.742  25.644  1.00  0.00     0.073 H 
ATOM      3  H   UNL     1     -48.737  35.014  27.054  1.00  0.00     0.073 H 
ENDROOT
BRANCH   1   4
ATOM      4  O   UNL     1     -47.465  33.325  27.076  1.00  0.00    -0.491 OA
BRANCH   4   5
ATOM      5  C   UNL     1     -47.492  32.421  26.052  1.00  0.00     0.121 A 
ATOM      6  C   UNL     1     -48.947  28.386  23.997  1.00  0.00     0.126 A 
ATOM      7  C   UNL     1     -48.075  28.562  22.928  1.00  0.00    -0.019 A 
ATOM      8  N   UNL     1     -49.028  29.288  24.996  1.00  0.00    -0.231 NA
ATOM      9  C   UNL     1     -47.247  29.680  22.899  1.00  0.00    -0.049 A 
ATOM     10  H   UNL     1     -48.046  27.842  22.118  1.00  0.00     0.066 H 
ATOM     11  C   UNL     1     -48.231  30.370  24.977  1.00  0.00     0.076 A 
ATOM     12  C   UNL     1     -47.310  30.609  23.938  1.00  0.00     0.001 A 
ATOM     13  H   UNL     1     -46.562  29.816  22.066  1.00  0.00     0.063 H 
ATOM     14  C   UNL     1     -48.303  31.285  26.020  1.00  0.00     0.007 A 
ATOM     15  C   UNL     1     -46.485  31.743  23.968  1.00  0.00    -0.049 A 
ATOM     16  H   UNL     1     -48.990  31.066  26.832  1.00  0.00     0.069 H 
ATOM     17  C   UNL     1     -46.572  32.640  25.032  1.00  0.00    -0.019 A 
ATOM     18  H   UNL     1     -45.766  31.930  23.174  1.00  0.00     0.063 H 
ATOM     19  H   UNL     1     -45.921  33.510  25.063  1.00  0.00     0.066 H 
BRANCH   6  20
ATOM     20  N   UNL     1     -49.782  27.253  23.985  1.00  0.00    -0.373 N 
ATOM     21  H   UNL     1     -49.605  26.726  23.135  1.00  0.00     0.161 HD
BRANCH  20  22
ATOM     22  C   UNL     1     -49.660  26.416  25.169  1.00  0.00     0.005 C 
ATOM     23  H   UNL     1     -49.078  25.510  24.964  1.00  0.00     0.045 H 
ATOM     24  H   UNL     1     -50.640  26.143  25.573  1.00  0.00     0.045 H 
ATOM     25  H   UNL     1     -49.128  26.977  25.945  1.00  0.00     0.045 H 
ENDBRANCH  20  22
ENDBRANCH   6  20
ENDBRANCH   4   5
ENDBRANCH   1   4
BRANCH   1  26
ATOM     26  C   UNL     1     -46.664  35.630  27.292  1.00  0.00     0.123 C 
ATOM     27  O   UNL     1     -46.623  36.874  26.567  1.00  0.00    -0.345 OA
ATOM     28  C   UNL     1     -46.853  36.016  28.750  1.00  0.00     0.119 C 
ATOM     29  H   UNL     1     -45.691  35.143  27.149  1.00  0.00     0.067 H 
ATOM     30  C   UNL     1     -46.122  37.889  27.478  1.00  0.00     0.169 C 
ATOM     31  C   UNL     1     -45.967  37.240  28.849  1.00  0.00     0.173 C 
ATOM     32  H   UNL     1     -47.889  36.282  28.987  1.00  0.00     0.066 H 
ATOM     33  H   UNL     1     -45.150  38.210  27.086  1.00  0.00     0.088 H 
ATOM     34  F   UNL     1     -46.381  38.016  29.880  1.00  0.00    -0.239 F 
ATOM     35  H   UNL     1     -44.926  36.958  29.039  1.00  0.00     0.074 H 
BRANCH  28  36
ATOM     36  O   UNL     1     -46.438  34.978  29.631  1.00  0.00    -0.387 OA
ATOM     37  H   UNL     1     -47.058  34.234  29.500  1.00  0.00     0.211 HD
ENDBRANCH  28  36
BRANCH  30  38
ATOM     38  N   UNL     1     -47.009  39.041  27.454  1.00  0.00    -0.303 N 
ATOM     39  C   UNL     1     -48.278  39.117  27.966  1.00  0.00     0.013 A 
ATOM     40  C   UNL     1     -46.668  40.246  26.899  1.00  0.00     0.147 A 
ATOM     41  C   UNL     1     -48.796  40.374  27.693  1.00  0.00    -0.014 A 
ATOM     42  H   UNL     1     -48.729  38.268  28.460  1.00  0.00     0.082 H 
ATOM     43  C   UNL     1     -47.746  41.113  27.043  1.00  0.00     0.065 A 
ATOM     44  N   UNL     1     -45.484  40.521  26.322  1.00  0.00    -0.218 NA
ATOM     45  C   UNL     1     -47.558  42.416  26.546  1.00  0.00     0.136 A 
ATOM     46  C   UNL     1     -45.436  41.785  25.875  1.00  0.00     0.120 A 
ATOM     47  N   UNL     1     -46.387  42.733  25.959  1.00  0.00    -0.219 NA
ATOM     48  H   UNL     1     -44.514  42.084  25.387  1.00  0.00     0.106 H 
BRANCH  41  49
ATOM     49  C   UNL     1     -50.180  40.862  28.025  1.00  0.00    -0.014 C 
ATOM     50  C   UNL     1     -51.271  39.774  27.952  1.00  0.00    -0.046 C 
ATOM     51  C   UNL     1     -50.262  41.433  29.453  1.00  0.00    -0.046 C 
ATOM     52  H   UNL     1     -50.460  41.639  27.304  1.00  0.00     0.035 H 
ATOM     53  C   UNL     1     -51.663  39.501  29.397  1.00  0.00    -0.053 C 
ATOM     54  H   UNL     1     -50.970  38.864  27.425  1.00  0.00     0.027 H 
ATOM     55  H   UNL     1     -52.142  40.178  27.420  1.00  0.00     0.027 H 
ATOM     56  C   UNL     1     -51.545  40.867  30.048  1.00  0.00    -0.053 C 
ATOM     57  H   UNL     1     -49.407  41.119  30.064  1.00  0.00     0.027 H 
ATOM     58  H   UNL     1     -50.274  42.528  29.450  1.00  0.00     0.027 H 
ATOM     59  H   UNL     1     -52.671  39.084  29.481  1.00  0.00     0.027 H 
ATOM     60  H   UNL     1     -50.959  38.800  29.858  1.00  0.00     0.027 H 
ATOM     61  H   UNL     1     -52.399  41.496  29.769  1.00  0.00     0.027 H 
ATOM     62  H   UNL     1     -51.506  40.808  31.138  1.00  0.00     0.027 H 
ENDBRANCH  41  49
BRANCH  45  63
ATOM     63  N   UNL     1     -48.493  43.440  26.648  1.00  0.00    -0.383 N 
ATOM     64  H   UNL     1     -48.965  43.552  25.757  1.00  0.00     0.158 HD
ATOM     65  H   UNL     1     -48.119  44.288  27.049  1.00  0.00     0.158 HD
ENDBRANCH  45  63
ENDBRANCH  30  38
ENDBRANCH   1  26
TORSDOF 9
ENDMDL
MODEL 4
REMARK VINA RESULT:     -10.0      3.150     11.461
REMARK SMILES CNc1ccc2ccc(OC[C@H]3O[C@@H](n4cc(C5CCCC5)c5c(N)ncnc54)[C@@H](F)[C@@H]3O)cc2n1
REMARK SMILES IDX 11 1 10 4 9 5 3 6 4 7 36 8 5 9 35 11 6 12 34 14 7 15 8 17
REMARK SMILES IDX 2 20 1 22 12 26 13 27 32 28 14 30 30 31 31 34 33 36 15 38
REMARK SMILES IDX 16 39 29 40 17 41 23 43 28 44 24 45 27 46 26 47 18 49 19 50
REMARK SMILES IDX 22 51 20 53 21 56 25 63
REMARK H PARENT 11 2 11 3 4 10 5 13 34 16 7 18 8 19 2 21 1 23 1 24 1 25 12 29
REMARK H PARENT 32 32 14 33 30 35 33 37 16 42 27 48 18 52 19 54 19 55 22 57
REMARK H PARENT 22 58 20 59 20 60 21 61 21 62 25 64 25 65
REMARK Flexibility Score: inf
ROOT
ATOM      1  C   UNL     1     -46.868  33.506  26.456  1.00  0.00     0.117 C 
ATOM      2  H   UNL     1     -46.016  34.062  26.048  1.00  0.00     0.073 H 
ATOM      3  H   UNL     1     -46.456  32.619  26.952  1.00  0.00     0.073 H 
ENDROOT
BRANCH   1   4
ATOM      4  O   UNL     1     -47.525  34.397  27.365  1.00  0.00    -0.491 OA
BRANCH   4   5
ATOM      5  C   UNL     1     -46.882  35.568  27.650  1.00  0.00     0.121 A 
ATOM      6  C   UNL     1     -45.633  40.058  26.701  1.00  0.00     0.126 A 
ATOM      7  C   UNL     1     -44.778  40.100  27.797  1.00  0.00    -0.019 A 
ATOM      8  N   UNL     1     -46.361  38.960  26.417  1.00  0.00    -0.231 NA
ATOM      9  C   UNL     1     -44.647  38.975  28.605  1.00  0.00    -0.049 A 
ATOM     10  H   UNL     1     -44.224  41.003  28.027  1.00  0.00     0.066 H 
ATOM     11  C   UNL     1     -46.241  37.868  27.192  1.00  0.00     0.076 A 
ATOM     12  C   UNL     1     -45.382  37.827  28.308  1.00  0.00     0.001 A 
ATOM     13  H   UNL     1     -43.976  39.007  29.459  1.00  0.00     0.063 H 
ATOM     14  C   UNL     1     -46.976  36.730  26.882  1.00  0.00     0.007 A 
ATOM     15  C   UNL     1     -45.275  36.659  29.079  1.00  0.00    -0.049 A 
ATOM     16  H   UNL     1     -47.603  36.765  25.996  1.00  0.00     0.069 H 
ATOM     17  C   UNL     1     -46.017  35.530  28.740  1.00  0.00    -0.019 A 
ATOM     18  H   UNL     1     -44.607  36.618  29.937  1.00  0.00     0.063 H 
ATOM     19  H   UNL     1     -45.922  34.620  29.327  1.00  0.00     0.066 H 
BRANCH   6  20
ATOM     20  N   UNL     1     -45.753  41.220  25.915  1.00  0.00    -0.373 N 
ATOM     21  H   UNL     1     -45.747  40.953  24.935  1.00  0.00     0.161 HD
BRANCH  20  22
ATOM     22  C   UNL     1     -46.911  42.037  26.242  1.00  0.00     0.005 C 
ATOM     23  H   UNL     1     -46.617  42.980  26.716  1.00  0.00     0.045 H 
ATOM     24  H   UNL     1     -47.614  41.502  26.890  1.00  0.00     0.045 H 
ATOM     25  H   UNL     1     -47.439  42.288  25.317  1.00  0.00     0.045 H 
ENDBRANCH  20  22
ENDBRANCH   6  20
ENDBRANCH   4   5
ENDBRANCH   1   4
BRANCH   1  26
ATOM     26  C   UNL     1     -47.790  33.102  25.303  1.00  0.00     0.123 C 
ATOM     27  O   UNL     1     -47.119  32.242  24.363  1.00  0.00    -0.345 OA
ATOM     28  C   UNL     1     -49.037  32.344  25.728  1.00  0.00     0.119 C 
ATOM     29  H   UNL     1     -48.066  34.016  24.761  1.00  0.00     0.067 H 
ATOM     30  C   UNL     1     -48.134  31.413  23.733  1.00  0.00     0.169 C 
ATOM     31  C   UNL     1     -49.463  31.715  24.418  1.00  0.00     0.173 C 
ATOM     32  H   UNL     1     -48.827  31.564  26.468  1.00  0.00     0.066 H 
ATOM     33  H   UNL     1     -48.164  31.703  22.677  1.00  0.00     0.088 H 
ATOM     34  F   UNL     1     -50.220  30.620  24.666  1.00  0.00    -0.239 F 
ATOM     35  H   UNL     1     -50.065  32.411  23.824  1.00  0.00     0.074 H 
BRANCH  28  36
ATOM     36  O   UNL     1     -50.033  33.214  26.256  1.00  0.00    -0.387 OA
ATOM     37  H   UNL     1     -49.727  34.126  26.084  1.00  0.00     0.211 HD
ENDBRANCH  28  36
BRANCH  30  38
ATOM     38  N   UNL     1     -47.728  30.019  23.797  1.00  0.00    -0.303 N 
ATOM     39  C   UNL     1     -48.420  28.981  24.364  1.00  0.00     0.013 A 
ATOM     40  C   UNL     1     -46.554  29.549  23.268  1.00  0.00     0.147 A 
ATOM     41  C   UNL     1     -47.663  27.825  24.254  1.00  0.00    -0.014 A 
ATOM     42  H   UNL     1     -49.383  29.145  24.827  1.00  0.00     0.082 H 
ATOM     43  C   UNL     1     -46.482  28.182  23.513  1.00  0.00     0.065 A 
ATOM     44  N   UNL     1     -45.644  30.301  22.623  1.00  0.00    -0.218 NA
ATOM     45  C   UNL     1     -45.342  27.527  23.012  1.00  0.00     0.136 A 
ATOM     46  C   UNL     1     -44.601  29.565  22.210  1.00  0.00     0.120 A 
ATOM     47  N   UNL     1     -44.405  28.243  22.361  1.00  0.00    -0.219 NA
ATOM     48  H   UNL     1     -43.816  30.102  21.687  1.00  0.00     0.106 H 
BRANCH  41  49
ATOM     49  C   UNL     1     -48.021  26.467  24.796  1.00  0.00    -0.014 C 
ATOM     50  C   UNL     1     -46.988  25.884  25.780  1.00  0.00    -0.046 C 
ATOM     51  C   UNL     1     -49.357  26.487  25.561  1.00  0.00    -0.046 C 
ATOM     52  H   UNL     1     -48.091  25.764  23.957  1.00  0.00     0.035 H 
ATOM     53  C   UNL     1     -47.655  25.950  27.146  1.00  0.00    -0.053 C 
ATOM     54  H   UNL     1     -46.017  26.385  25.769  1.00  0.00     0.027 H 
ATOM     55  H   UNL     1     -46.807  24.831  25.527  1.00  0.00     0.027 H 
ATOM     56  C   UNL     1     -49.114  25.678  26.829  1.00  0.00    -0.053 C 
ATOM     57  H   UNL     1     -49.653  27.509  25.831  1.00  0.00     0.027 H 
ATOM     58  H   UNL     1     -50.171  26.061  24.966  1.00  0.00     0.027 H 
ATOM     59  H   UNL     1     -47.238  25.221  27.848  1.00  0.00     0.027 H 
ATOM     60  H   UNL     1     -47.542  26.950  27.580  1.00  0.00     0.027 H 
ATOM     61  H   UNL     1     -49.268  24.611  26.631  1.00  0.00     0.027 H 
ATOM     62  H   UNL     1     -49.781  25.973  27.643  1.00  0.00     0.027 H 
ENDBRANCH  41  49
BRANCH  45  63
ATOM     63  N   UNL     1     -45.117  26.158  23.104  1.00  0.00    -0.383 N 
ATOM     64  H   UNL     1     -45.255  25.860  24.063  1.00  0.00     0.158 HD
ATOM     65  H   UNL     1     -44.249  25.863  22.681  1.00  0.00     0.158 HD
ENDBRANCH  45  63
ENDBRANCH  30  38
ENDBRANCH   1  26
TORSDOF 9
ENDMDL
MODEL 5
REMARK VINA RESULT:      -9.9      3.090     11.782
REMARK SMILES CNc1ccc2ccc(OC[C@H]3O[C@@H](n4cc(C5CCCC5)c5c(N)ncnc54)[C@@H](F)[C@@H]3O)cc2n1
REMARK SMILES IDX 11 1 10 4 9 5 3 6 4 7 36 8 5 9 35 11 6 12 34 14 7 15 8 17
REMARK SMILES IDX 2 20 1 22 12 26 13 27 32 28 14 30 30 31 31 34 33 36 15 38
REMARK SMILES IDX 16 39 29 40 17 41 23 43 28 44 24 45 27 46 26 47 18 49 19 50
REMARK SMILES IDX 22 51 20 53 21 56 25 63
REMARK H PARENT 11 2 11 3 4 10 5 13 34 16 7 18 8 19 2 21 1 23 1 24 1 25 12 29
REMARK H PARENT 32 32 14 33 30 35 33 37 16 42 27 48 18 52 19 54 19 55 22 57
REMARK H PARENT 22 58 20 59 20 60 21 61 21 62 25 64 25 65
REMARK Flexibility Score: inf
ROOT
ATOM      1  C   UNL     1     -46.624  32.735  26.633  1.00  0.00     0.117 C 
ATOM      2  H   UNL     1     -45.645  33.034  26.241  1.00  0.00     0.073 H 
ATOM      3  H   UNL     1     -46.550  31.672  26.887  1.00  0.00     0.073 H 
ENDROOT
BRANCH   1   4
ATOM      4  O   UNL     1     -46.863  33.565  27.777  1.00  0.00    -0.491 OA
BRANCH   4   5
ATOM      5  C   UNL     1     -46.521  34.882  27.663  1.00  0.00     0.121 A 
ATOM      6  C   UNL     1     -44.389  38.854  29.179  1.00  0.00     0.126 A 
ATOM      7  C   UNL     1     -44.948  39.603  28.148  1.00  0.00    -0.019 A 
ATOM      8  N   UNL     1     -44.619  37.531  29.294  1.00  0.00    -0.231 NA
ATOM      9  C   UNL     1     -45.788  38.980  27.230  1.00  0.00    -0.049 A 
ATOM     10  H   UNL     1     -44.727  40.660  28.054  1.00  0.00     0.066 H 
ATOM     11  C   UNL     1     -45.430  36.921  28.411  1.00  0.00     0.076 A 
ATOM     12  C   UNL     1     -46.047  37.614  27.352  1.00  0.00     0.001 A 
ATOM     13  H   UNL     1     -46.228  39.565  26.427  1.00  0.00     0.063 H 
ATOM     14  C   UNL     1     -45.682  35.562  28.548  1.00  0.00     0.007 A 
ATOM     15  C   UNL     1     -46.900  36.940  26.465  1.00  0.00    -0.049 A 
ATOM     16  H   UNL     1     -45.230  35.050  29.392  1.00  0.00     0.069 H 
ATOM     17  C   UNL     1     -47.143  35.578  26.631  1.00  0.00    -0.019 A 
ATOM     18  H   UNL     1     -47.387  37.471  25.650  1.00  0.00     0.063 H 
ATOM     19  H   UNL     1     -47.816  35.060  25.953  1.00  0.00     0.066 H 
BRANCH   6  20
ATOM     20  N   UNL     1     -43.532  39.513  30.080  1.00  0.00    -0.373 N 
ATOM     21  H   UNL     1     -42.983  38.818  30.577  1.00  0.00     0.161 HD
BRANCH  20  22
ATOM     22  C   UNL     1     -42.685  40.521  29.460  1.00  0.00     0.005 C 
ATOM     23  H   UNL     1     -41.782  40.709  30.051  1.00  0.00     0.045 H 
ATOM     24  H   UNL     1     -43.226  41.461  29.303  1.00  0.00     0.045 H 
ATOM     25  H   UNL     1     -42.363  40.158  28.479  1.00  0.00     0.045 H 
ENDBRANCH  20  22
ENDBRANCH   6  20
ENDBRANCH   4   5
ENDBRANCH   1   4
BRANCH   1  26
ATOM     26  C   UNL     1     -47.679  32.961  25.547  1.00  0.00     0.123 C 
ATOM     27  O   UNL     1     -47.401  32.183  24.367  1.00  0.00    -0.345 OA
ATOM     28  C   UNL     1     -49.095  32.587  25.956  1.00  0.00     0.119 C 
ATOM     29  H   UNL     1     -47.633  34.018  25.253  1.00  0.00     0.067 H 
ATOM     30  C   UNL     1     -48.671  31.925  23.709  1.00  0.00     0.169 C 
ATOM     31  C   UNL     1     -49.773  32.479  24.606  1.00  0.00     0.173 C 
ATOM     32  H   UNL     1     -49.145  31.626  26.479  1.00  0.00     0.066 H 
ATOM     33  H   UNL     1     -48.642  32.458  22.752  1.00  0.00     0.088 H 
ATOM     34  F   UNL     1     -50.860  31.677  24.709  1.00  0.00    -0.239 F 
ATOM     35  H   UNL     1     -50.113  33.460  24.256  1.00  0.00     0.074 H 
BRANCH  28  36
ATOM     36  O   UNL     1     -49.690  33.584  26.779  1.00  0.00    -0.387 OA
ATOM     37  H   UNL     1     -48.981  34.215  27.011  1.00  0.00     0.211 HD
ENDBRANCH  28  36
BRANCH  30  38
ATOM     38  N   UNL     1     -48.787  30.505  23.421  1.00  0.00    -0.303 N 
ATOM     39  C   UNL     1     -48.564  29.464  24.285  1.00  0.00     0.013 A 
ATOM     40  C   UNL     1     -49.156  30.010  22.198  1.00  0.00     0.147 A 
ATOM     41  C   UNL     1     -48.737  28.270  23.602  1.00  0.00    -0.014 A 
ATOM     42  H   UNL     1     -48.273  29.648  25.310  1.00  0.00     0.082 H 
ATOM     43  C   UNL     1     -49.158  28.622  22.272  1.00  0.00     0.065 A 
ATOM     44  N   UNL     1     -49.465  30.760  21.125  1.00  0.00    -0.218 NA
ATOM     45  C   UNL     1     -49.541  27.944  21.100  1.00  0.00     0.136 A 
ATOM     46  C   UNL     1     -49.796  29.999  20.071  1.00  0.00     0.120 A 
ATOM     47  N   UNL     1     -49.857  28.657  20.001  1.00  0.00    -0.219 NA
ATOM     48  H   UNL     1     -50.052  30.531  19.160  1.00  0.00     0.106 H 
BRANCH  41  49
ATOM     49  C   UNL     1     -48.533  26.887  24.157  1.00  0.00    -0.014 C 
ATOM     50  C   UNL     1     -47.387  26.776  25.183  1.00  0.00    -0.046 C 
ATOM     51  C   UNL     1     -49.788  26.366  24.882  1.00  0.00    -0.046 C 
ATOM     52  H   UNL     1     -48.282  26.212  23.329  1.00  0.00     0.035 H 
ATOM     53  C   UNL     1     -48.071  26.571  26.527  1.00  0.00    -0.053 C 
ATOM     54  H   UNL     1     -46.702  27.629  25.192  1.00  0.00     0.027 H 
ATOM     55  H   UNL     1     -46.786  25.887  24.953  1.00  0.00     0.027 H 
ATOM     56  C   UNL     1     -49.282  25.730  26.170  1.00  0.00    -0.053 C 
ATOM     57  H   UNL     1     -50.482  27.180  25.124  1.00  0.00     0.027 H 
ATOM     58  H   UNL     1     -50.337  25.643  24.270  1.00  0.00     0.027 H 
ATOM     59  H   UNL     1     -47.418  26.077  27.253  1.00  0.00     0.027 H 
ATOM     60  H   UNL     1     -48.387  27.533  26.945  1.00  0.00     0.027 H 
ATOM     61  H   UNL     1     -48.983  24.691  25.986  1.00  0.00     0.027 H 
ATOM     62  H   UNL     1     -50.039  25.732  26.958  1.00  0.00     0.027 H 
ENDBRANCH  41  49
BRANCH  45  63
ATOM     63  N   UNL     1     -49.660  26.563  20.992  1.00  0.00    -0.383 N 
ATOM     64  H   UNL     1     -50.587  26.332  20.649  1.00  0.00     0.158 HD
ATOM     65  H   UNL     1     -49.373  26.068  21.825  1.00  0.00     0.158 HD
ENDBRANCH  45  63
ENDBRANCH  30  38
ENDBRANCH   1  26
TORSDOF 9
ENDMDL
MODEL 6
REMARK VINA RESULT:      -9.9      3.053      4.299
REMARK SMILES CNc1ccc2ccc(OC[C@H]3O[C@@H](n4cc(C5CCCC5)c5c(N)ncnc54)[C@@H](F)[C@@H]3O)cc2n1
REMARK SMILES IDX 11 1 10 4 9 5 3 6 4 7 36 8 5 9 35 11 6 12 34 14 7 15 8 17
REMARK SMILES IDX 2 20 1 22 12 26 13 27 32 28 14 30 30 31 31 34 33 36 15 38
REMARK SMILES IDX 16 39 29 40 17 41 23 43 28 44 24 45 27 46 26 47 18 49 19 50
REMARK SMILES IDX 22 51 20 53 21 56 25 63
REMARK H PARENT 11 2 11 3 4 10 5 13 34 16 7 18 8 19 2 21 1 23 1 24 1 25 12 29
REMARK H PARENT 32 32 14 33 30 35 33 37 16 42 27 48 18 52 19 54 19 55 22 57
REMARK H PARENT 22 58 20 59 20 60 21 61 21 62 25 64 25 65
REMARK Flexibility Score: inf
ROOT
ATOM      1  C   UNL     1     -47.624  35.149  27.255  1.00  0.00     0.117 C 
ATOM      2  H   UNL     1     -48.209  35.226  26.331  1.00  0.00     0.073 H 
ATOM      3  H   UNL     1     -48.325  35.303  28.084  1.00  0.00     0.073 H 
ENDROOT
BRANCH   1   4
ATOM      4  O   UNL     1     -47.048  33.837  27.251  1.00  0.00    -0.491 OA
BRANCH   4   5
ATOM      5  C   UNL     1     -47.394  33.017  26.215  1.00  0.00     0.121 A 
ATOM      6  C   UNL     1     -46.674  31.047  21.947  1.00  0.00     0.126 A 
ATOM      7  C   UNL     1     -47.923  30.436  21.967  1.00  0.00    -0.019 A 
ATOM      8  N   UNL     1     -46.240  31.798  22.978  1.00  0.00    -0.231 NA
ATOM      9  C   UNL     1     -48.759  30.626  23.063  1.00  0.00    -0.049 A 
ATOM     10  H   UNL     1     -48.242  29.810  21.141  1.00  0.00     0.066 H 
ATOM     11  C   UNL     1     -47.041  31.988  24.041  1.00  0.00     0.076 A 
ATOM     12  C   UNL     1     -48.326  31.418  24.127  1.00  0.00     0.001 A 
ATOM     13  H   UNL     1     -49.737  30.152  23.077  1.00  0.00     0.063 H 
ATOM     14  C   UNL     1     -46.599  32.782  25.092  1.00  0.00     0.007 A 
ATOM     15  C   UNL     1     -49.135  31.658  25.248  1.00  0.00    -0.049 A 
ATOM     16  H   UNL     1     -45.621  33.246  24.993  1.00  0.00     0.069 H 
ATOM     17  C   UNL     1     -48.670  32.466  26.284  1.00  0.00    -0.019 A 
ATOM     18  H   UNL     1     -50.132  31.228  25.317  1.00  0.00     0.063 H 
ATOM     19  H   UNL     1     -49.303  32.665  27.144  1.00  0.00     0.066 H 
BRANCH   6  20
ATOM     20  N   UNL     1     -45.849  30.819  20.829  1.00  0.00    -0.373 N 
ATOM     21  H   UNL     1     -46.042  29.891  20.464  1.00  0.00     0.161 HD
BRANCH  20  22
ATOM     22  C   UNL     1     -45.961  31.836  19.795  1.00  0.00     0.005 C 
ATOM     23  H   UNL     1     -46.923  32.358  19.846  1.00  0.00     0.045 H 
ATOM     24  H   UNL     1     -45.823  31.412  18.795  1.00  0.00     0.045 H 
ATOM     25  H   UNL     1     -45.176  32.584  19.948  1.00  0.00     0.045 H 
ENDBRANCH  20  22
ENDBRANCH   6  20
ENDBRANCH   4   5
ENDBRANCH   1   4
BRANCH   1  26
ATOM     26  C   UNL     1     -46.545  36.235  27.247  1.00  0.00     0.123 C 
ATOM     27  O   UNL     1     -46.915  37.345  26.408  1.00  0.00    -0.345 OA
ATOM     28  C   UNL     1     -46.247  36.837  28.611  1.00  0.00     0.119 C 
ATOM     29  H   UNL     1     -45.635  35.796  26.817  1.00  0.00     0.067 H 
ATOM     30  C   UNL     1     -46.249  38.525  26.933  1.00  0.00     0.169 C 
ATOM     31  C   UNL     1     -45.539  38.118  28.220  1.00  0.00     0.173 C 
ATOM     32  H   UNL     1     -47.155  37.069  29.179  1.00  0.00     0.066 H 
ATOM     33  H   UNL     1     -45.527  38.842  26.172  1.00  0.00     0.088 H 
ATOM     34  F   UNL     1     -45.648  39.020  29.224  1.00  0.00    -0.239 F 
ATOM     35  H   UNL     1     -44.472  37.940  28.044  1.00  0.00     0.074 H 
BRANCH  28  36
ATOM     36  O   UNL     1     -45.423  35.985  29.398  1.00  0.00    -0.387 OA
ATOM     37  H   UNL     1     -45.997  35.266  29.727  1.00  0.00     0.211 HD
ENDBRANCH  28  36
BRANCH  30  38
ATOM     38  N   UNL     1     -47.219  39.596  27.096  1.00  0.00    -0.303 N 
ATOM     39  C   UNL     1     -48.454  39.512  27.682  1.00  0.00     0.013 A 
ATOM     40  C   UNL     1     -47.003  40.881  26.669  1.00  0.00     0.147 A 
ATOM     41  C   UNL     1     -49.080  40.746  27.589  1.00  0.00    -0.014 A 
ATOM     42  H   UNL     1     -48.808  38.578  28.095  1.00  0.00     0.082 H 
ATOM     43  C   UNL     1     -48.130  41.636  26.975  1.00  0.00     0.065 A 
ATOM     44  N   UNL     1     -45.883  41.315  26.064  1.00  0.00    -0.218 NA
ATOM     45  C   UNL     1     -48.071  42.998  26.626  1.00  0.00     0.136 A 
ATOM     46  C   UNL     1     -45.956  42.621  25.769  1.00  0.00     0.120 A 
ATOM     47  N   UNL     1     -46.967  43.473  26.017  1.00  0.00    -0.219 NA
ATOM     48  H   UNL     1     -45.092  43.047  25.270  1.00  0.00     0.106 H 
BRANCH  41  49
ATOM     49  C   UNL     1     -50.472  41.079  28.052  1.00  0.00    -0.014 C 
ATOM     50  C   UNL     1     -51.528  41.100  26.928  1.00  0.00    -0.046 C 
ATOM     51  C   UNL     1     -50.992  40.065  29.089  1.00  0.00    -0.046 C 
ATOM     52  H   UNL     1     -50.462  42.082  28.495  1.00  0.00     0.035 H 
ATOM     53  C   UNL     1     -52.384  39.864  27.161  1.00  0.00    -0.053 C 
ATOM     54  H   UNL     1     -51.113  41.132  25.917  1.00  0.00     0.027 H 
ATOM     55  H   UNL     1     -52.156  41.992  27.045  1.00  0.00     0.027 H 
ATOM     56  C   UNL     1     -52.424  39.753  28.674  1.00  0.00    -0.053 C 
ATOM     57  H   UNL     1     -50.400  39.141  29.083  1.00  0.00     0.027 H 
ATOM     58  H   UNL     1     -50.950  40.469  30.105  1.00  0.00     0.027 H 
ATOM     59  H   UNL     1     -53.382  39.963  26.723  1.00  0.00     0.027 H 
ATOM     60  H   UNL     1     -51.905  38.979  26.729  1.00  0.00     0.027 H 
ATOM     61  H   UNL     1     -53.108  40.501  29.092  1.00  0.00     0.027 H 
ATOM     62  H   UNL     1     -52.748  38.766  29.013  1.00  0.00     0.027 H 
ENDBRANCH  41  49
BRANCH  45  63
ATOM     63  N   UNL     1     -49.071  43.925  26.900  1.00  0.00    -0.383 N 
ATOM     64  H   UNL     1     -49.087  44.626  26.167  1.00  0.00     0.158 HD
ATOM     65  H   UNL     1     -49.037  44.286  27.843  1.00  0.00     0.158 HD
ENDBRANCH  45  63
ENDBRANCH  30  38
ENDBRANCH   1  26
TORSDOF 9
ENDMDL
MODEL 7
REMARK VINA RESULT:      -9.7      2.795      4.895
REMARK SMILES CNc1ccc2ccc(OC[C@H]3O[C@@H](n4cc(C5CCCC5)c5c(N)ncnc54)[C@@H](F)[C@@H]3O)cc2n1
REMARK SMILES IDX 11 1 10 4 9 5 3 6 4 7 36 8 5 9 35 11 6 12 34 14 7 15 8 17
REMARK SMILES IDX 2 20 1 22 12 26 13 27 32 28 14 30 30 31 31 34 33 36 15 38
REMARK SMILES IDX 16 39 29 40 17 41 23 43 28 44 24 45 27 46 26 47 18 49 19 50
REMARK SMILES IDX 22 51 20 53 21 56 25 63
REMARK H PARENT 11 2 11 3 4 10 5 13 34 16 7 18 8 19 2 21 1 23 1 24 1 25 12 29
REMARK H PARENT 32 32 14 33 30 35 33 37 16 42 27 48 18 52 19 54 19 55 22 57
REMARK H PARENT 22 58 20 59 20 60 21 61 21 62 25 64 25 65
REMARK Flexibility Score: inf
ROOT
ATOM      1  C   UNL     1     -45.420  39.425  28.377  1.00  0.00     0.117 C 
ATOM      2  H   UNL     1     -46.058  39.320  27.493  1.00  0.00     0.073 H 
ATOM      3  H   UNL     1     -45.902  40.164  29.027  1.00  0.00     0.073 H 
ENDROOT
BRANCH   1   4
ATOM      4  O   UNL     1     -45.348  38.124  28.972  1.00  0.00    -0.491 OA
BRANCH   4   5
ATOM      5  C   UNL     1     -46.057  37.129  28.362  1.00  0.00     0.121 A 
ATOM      6  C   UNL     1     -46.423  33.194  25.716  1.00  0.00     0.126 A 
ATOM      7  C   UNL     1     -47.812  33.267  25.717  1.00  0.00    -0.019 A 
ATOM      8  N   UNL     1     -45.670  34.098  26.373  1.00  0.00    -0.231 NA
ATOM      9  C   UNL     1     -48.441  34.312  26.387  1.00  0.00    -0.049 A 
ATOM     10  H   UNL     1     -48.402  32.513  25.208  1.00  0.00     0.066 H 
ATOM     11  C   UNL     1     -46.268  35.111  27.023  1.00  0.00     0.076 A 
ATOM     12  C   UNL     1     -47.668  35.264  27.054  1.00  0.00     0.001 A 
ATOM     13  H   UNL     1     -49.525  34.372  26.384  1.00  0.00     0.063 H 
ATOM     14  C   UNL     1     -45.486  36.053  27.680  1.00  0.00     0.007 A 
ATOM     15  C   UNL     1     -48.249  36.348  27.729  1.00  0.00    -0.049 A 
ATOM     16  H   UNL     1     -44.407  35.944  27.613  1.00  0.00     0.069 H 
ATOM     17  C   UNL     1     -47.440  37.283  28.372  1.00  0.00    -0.019 A 
ATOM     18  H   UNL     1     -49.329  36.476  27.750  1.00  0.00     0.063 H 
ATOM     19  H   UNL     1     -47.889  38.131  28.881  1.00  0.00     0.066 H 
BRANCH   6  20
ATOM     20  N   UNL     1     -45.822  32.114  25.042  1.00  0.00    -0.373 N 
ATOM     21  H   UNL     1     -45.417  31.485  25.729  1.00  0.00     0.161 HD
BRANCH  20  22
ATOM     22  C   UNL     1     -46.717  31.413  24.134  1.00  0.00     0.005 C 
ATOM     23  H   UNL     1     -46.947  30.404  24.495  1.00  0.00     0.045 H 
ATOM     24  H   UNL     1     -46.302  31.358  23.122  1.00  0.00     0.045 H 
ATOM     25  H   UNL     1     -47.662  31.962  24.075  1.00  0.00     0.045 H 
ENDBRANCH  20  22
ENDBRANCH   6  20
ENDBRANCH   4   5
ENDBRANCH   1   4
BRANCH   1  26
ATOM     26  C   UNL     1     -44.039  39.914  27.932  1.00  0.00     0.123 C 
ATOM     27  O   UNL     1     -44.128  40.793  26.794  1.00  0.00    -0.345 OA
ATOM     28  C   UNL     1     -43.276  40.696  28.989  1.00  0.00     0.119 C 
ATOM     29  H   UNL     1     -43.461  39.036  27.615  1.00  0.00     0.067 H 
ATOM     30  C   UNL     1     -42.982  41.685  26.845  1.00  0.00     0.169 C 
ATOM     31  C   UNL     1     -42.235  41.399  28.143  1.00  0.00     0.173 C 
ATOM     32  H   UNL     1     -43.901  41.433  29.505  1.00  0.00     0.066 H 
ATOM     33  H   UNL     1     -42.360  41.445  25.975  1.00  0.00     0.088 H 
ATOM     34  F   UNL     1     -41.801  42.508  28.789  1.00  0.00    -0.239 F 
ATOM     35  H   UNL     1     -41.368  40.754  27.968  1.00  0.00     0.074 H 
BRANCH  28  36
ATOM     36  O   UNL     1     -42.689  39.838  29.962  1.00  0.00    -0.387 OA
ATOM     37  H   UNL     1     -41.782  40.167  30.114  1.00  0.00     0.211 HD
ENDBRANCH  28  36
BRANCH  30  38
ATOM     38  N   UNL     1     -43.432  43.060  26.700  1.00  0.00    -0.303 N 
ATOM     39  C   UNL     1     -43.713  43.948  27.705  1.00  0.00     0.013 A 
ATOM     40  C   UNL     1     -43.635  43.664  25.487  1.00  0.00     0.147 A 
ATOM     41  C   UNL     1     -44.158  45.135  27.142  1.00  0.00    -0.014 A 
ATOM     42  H   UNL     1     -43.603  43.664  28.742  1.00  0.00     0.082 H 
ATOM     43  C   UNL     1     -44.068  44.966  25.716  1.00  0.00     0.065 A 
ATOM     44  N   UNL     1     -43.436  43.079  24.292  1.00  0.00    -0.218 NA
ATOM     45  C   UNL     1     -44.302  45.746  24.569  1.00  0.00     0.136 A 
ATOM     46  C   UNL     1     -43.709  43.919  23.282  1.00  0.00     0.120 A 
ATOM     47  N   UNL     1     -44.117  45.199  23.352  1.00  0.00    -0.219 NA
ATOM     48  H   UNL     1     -43.581  43.519  22.281  1.00  0.00     0.106 H 
BRANCH  41  49
ATOM     49  C   UNL     1     -44.628  46.355  27.886  1.00  0.00    -0.014 C 
ATOM     50  C   UNL     1     -46.160  46.527  27.921  1.00  0.00    -0.046 C 
ATOM     51  C   UNL     1     -44.181  46.339  29.359  1.00  0.00    -0.046 C 
ATOM     52  H   UNL     1     -44.221  47.245  27.390  1.00  0.00     0.035 H 
ATOM     53  C   UNL     1     -46.564  46.224  29.356  1.00  0.00    -0.053 C 
ATOM     54  H   UNL     1     -46.702  45.910  27.199  1.00  0.00     0.027 H 
ATOM     55  H   UNL     1     -46.408  47.572  27.697  1.00  0.00     0.027 H 
ATOM     56  C   UNL     1     -45.401  46.771  30.163  1.00  0.00    -0.053 C 
ATOM     57  H   UNL     1     -43.870  45.336  29.677  1.00  0.00     0.027 H 
ATOM     58  H   UNL     1     -43.333  47.010  29.532  1.00  0.00     0.027 H 
ATOM     59  H   UNL     1     -47.516  46.692  29.626  1.00  0.00     0.027 H 
ATOM     60  H   UNL     1     -46.657  45.143  29.508  1.00  0.00     0.027 H 
ATOM     61  H   UNL     1     -45.452  47.865  30.212  1.00  0.00     0.027 H 
ATOM     62  H   UNL     1     -45.383  46.384  31.185  1.00  0.00     0.027 H 
ENDBRANCH  41  49
BRANCH  45  63
ATOM     63  N   UNL     1     -44.682  47.084  24.591  1.00  0.00    -0.383 N 
ATOM     64  H   UNL     1     -45.416  47.234  23.907  1.00  0.00     0.158 HD
ATOM     65  H   UNL     1     -43.903  47.724  24.537  1.00  0.00     0.158 HD
ENDBRANCH  45  63
ENDBRANCH  30  38
ENDBRANCH   1  26
TORSDOF 9
ENDMDL
