MODEL 1
REMARK VINA RESULT:     -10.8      0.000      0.000
REMARK SMILES Cn1ccc(-c2cn(-c3cncc(CCc4ccc5cc(Br)c(N)nc5c4)c3)c3ncnc(N)c23)n1
REMARK SMILES IDX 9 1 10 2 11 3 12 4 13 5 28 6 8 10 6 11 7 12 35 13 29 15
REMARK SMILES IDX 33 16 30 17 32 18 31 19 5 21 2 22 3 23 36 24 4 25 1 28 34 32
REMARK SMILES IDX 14 35 15 38 16 41 17 42 27 43 18 44 26 46 19 48 25 50 20 51
REMARK SMILES IDX 23 52 21 53 22 55 24 56
REMARK H PARENT 10 7 12 8 28 9 7 14 31 20 3 26 4 27 1 29 1 30 1 31 34 33 34 34
REMARK H PARENT 14 36 14 37 15 39 15 40 17 45 27 47 18 49 20 54 24 57 24 58
REMARK Flexibility Score: inf
ROOT
ATOM      1  C   UNL     1     -45.167  38.293  28.851  1.00  0.00     0.066 A 
ATOM      2  C   UNL     1     -45.655  38.213  30.150  1.00  0.00     0.051 A 
ATOM      3  N   UNL     1     -46.188  37.090  30.698  1.00  0.00    -0.262 NA
ATOM      4  C   UNL     1     -46.240  35.990  29.921  1.00  0.00     0.030 A 
ATOM      5  C   UNL     1     -45.772  35.947  28.615  1.00  0.00    -0.027 A 
ATOM      6  C   UNL     1     -45.218  37.120  28.086  1.00  0.00    -0.032 A 
ATOM      7  H   UNL     1     -45.681  39.056  30.831  1.00  0.00     0.086 H 
ATOM      8  H   UNL     1     -46.686  35.120  30.395  1.00  0.00     0.084 H 
ATOM      9  H   UNL     1     -44.842  37.085  27.069  1.00  0.00     0.065 H 
ENDROOT
BRANCH   1  10
ATOM     10  N   UNL     1     -44.666  39.513  28.296  1.00  0.00    -0.299 N 
ATOM     11  C   UNL     1     -44.493  41.318  26.954  1.00  0.00     0.033 A 
ATOM     12  C   UNL     1     -45.217  40.174  27.214  1.00  0.00     0.021 A 
ATOM     13  C   UNL     1     -43.469  41.413  27.930  1.00  0.00     0.071 A 
ATOM     14  H   UNL     1     -46.093  39.809  26.698  1.00  0.00     0.083 H 
ATOM     15  C   UNL     1     -43.575  40.272  28.728  1.00  0.00     0.150 A 
ATOM     16  C   UNL     1     -42.453  42.325  28.269  1.00  0.00     0.137 A 
ATOM     17  N   UNL     1     -42.744  39.962  29.744  1.00  0.00    -0.218 NA
ATOM     18  N   UNL     1     -41.618  42.036  29.282  1.00  0.00    -0.219 NA
ATOM     19  C   UNL     1     -41.796  40.884  29.945  1.00  0.00     0.120 A 
ATOM     20  H   UNL     1     -41.092  40.680  30.745  1.00  0.00     0.106 H 
BRANCH  11  21
ATOM     21  C   UNL     1     -44.766  42.248  25.863  1.00  0.00     0.095 A 
ATOM     22  N   UNL     1     -45.701  43.751  24.712  1.00  0.00    -0.275 N 
ATOM     23  C   UNL     1     -44.690  43.292  23.918  1.00  0.00     0.025 A 
ATOM     24  N   UNL     1     -45.776  43.126  25.902  1.00  0.00    -0.173 NA
ATOM     25  C   UNL     1     -44.068  42.298  24.638  1.00  0.00    -0.016 A 
ATOM     26  H   UNL     1     -44.509  43.688  22.929  1.00  0.00     0.084 H 
ATOM     27  H   UNL     1     -43.232  41.691  24.319  1.00  0.00     0.066 H 
BRANCH  22  28
ATOM     28  C   UNL     1     -46.656  44.781  24.387  1.00  0.00     0.030 C 
ATOM     29  H   UNL     1     -47.537  44.652  25.020  1.00  0.00     0.048 H 
ATOM     30  H   UNL     1     -46.919  44.679  23.331  1.00  0.00     0.048 H 
ATOM     31  H   UNL     1     -46.209  45.762  24.570  1.00  0.00     0.048 H 
ENDBRANCH  22  28
ENDBRANCH  11  21
BRANCH  16  32
ATOM     32  N   UNL     1     -42.255  43.555  27.653  1.00  0.00    -0.383 N 
ATOM     33  H   UNL     1     -42.847  44.253  28.090  1.00  0.00     0.158 HD
ATOM     34  H   UNL     1     -42.307  43.519  26.642  1.00  0.00     0.158 HD
ENDBRANCH  16  32
ENDBRANCH   1  10
BRANCH   5  35
ATOM     35  C   UNL     1     -45.903  34.699  27.778  1.00  0.00    -0.022 C 
ATOM     36  H   UNL     1     -44.922  34.221  27.682  1.00  0.00     0.032 H 
ATOM     37  H   UNL     1     -46.533  33.979  28.317  1.00  0.00     0.032 H 
BRANCH  35  38
ATOM     38  C   UNL     1     -46.523  34.960  26.396  1.00  0.00    -0.024 C 
ATOM     39  H   UNL     1     -47.292  35.737  26.490  1.00  0.00     0.032 H 
ATOM     40  H   UNL     1     -45.768  35.367  25.709  1.00  0.00     0.032 H 
BRANCH  38  41
ATOM     41  C   UNL     1     -47.162  33.735  25.785  1.00  0.00    -0.046 A 
ATOM     42  C   UNL     1     -48.484  33.395  26.084  1.00  0.00    -0.058 A 
ATOM     43  C   UNL     1     -46.452  32.947  24.864  1.00  0.00    -0.032 A 
ATOM     44  C   UNL     1     -49.083  32.301  25.463  1.00  0.00    -0.052 A 
ATOM     45  H   UNL     1     -49.065  33.993  26.786  1.00  0.00     0.063 H 
ATOM     46  C   UNL     1     -47.022  31.848  24.235  1.00  0.00     0.073 A 
ATOM     47  H   UNL     1     -45.421  33.197  24.621  1.00  0.00     0.065 H 
ATOM     48  C   UNL     1     -48.361  31.527  24.539  1.00  0.00     0.001 A 
ATOM     49  H   UNL     1     -50.118  32.061  25.697  1.00  0.00     0.063 H 
ATOM     50  N   UNL     1     -46.290  31.138  23.358  1.00  0.00    -0.230 NA
ATOM     51  C   UNL     1     -48.935  30.426  23.895  1.00  0.00    -0.035 A 
ATOM     52  C   UNL     1     -46.859  30.079  22.749  1.00  0.00     0.138 A 
ATOM     53  C   UNL     1     -48.174  29.688  22.995  1.00  0.00     0.060 A 
ATOM     54  H   UNL     1     -49.966  30.149  24.098  1.00  0.00     0.064 H 
ATOM     55  Br  UNL     1     -48.958  28.188  22.144  1.00  0.00    -0.047 Br
BRANCH  52  56
ATOM     56  N   UNL     1     -46.017  29.375  21.888  1.00  0.00    -0.383 N 
ATOM     57  H   UNL     1     -45.839  29.969  21.083  1.00  0.00     0.158 HD
ATOM     58  H   UNL     1     -46.407  28.474  21.635  1.00  0.00     0.158 HD
ENDBRANCH  52  56
ENDBRANCH  38  41
ENDBRANCH  35  38
ENDBRANCH   5  35
TORSDOF 8
ENDMDL
MODEL 2
REMARK VINA RESULT:     -10.5      2.516      4.430
REMARK SMILES Cn1ccc(-c2cn(-c3cncc(CCc4ccc5cc(Br)c(N)nc5c4)c3)c3ncnc(N)c23)n1
REMARK SMILES IDX 9 1 10 2 11 3 12 4 13 5 28 6 8 10 6 11 7 12 35 13 29 15
REMARK SMILES IDX 33 16 30 17 32 18 31 19 5 21 2 22 3 23 36 24 4 25 1 28 34 32
REMARK SMILES IDX 14 35 15 38 16 41 17 42 27 43 18 44 26 46 19 48 25 50 20 51
REMARK SMILES IDX 23 52 21 53 22 55 24 56
REMARK H PARENT 10 7 12 8 28 9 7 14 31 20 3 26 4 27 1 29 1 30 1 31 34 33 34 34
REMARK H PARENT 14 36 14 37 15 39 15 40 17 45 27 47 18 49 20 54 24 57 24 58
REMARK Flexibility Score: inf
ROOT
ATOM      1  C   UNL     1     -43.117  41.842  27.993  1.00  0.00     0.066 A 
ATOM      2  C   UNL     1     -42.223  41.920  29.055  1.00  0.00     0.051 A 
ATOM      3  N   UNL     1     -42.093  40.967  30.014  1.00  0.00    -0.262 NA
ATOM      4  C   UNL     1     -42.888  39.882  29.917  1.00  0.00     0.030 A 
ATOM      5  C   UNL     1     -43.807  39.689  28.896  1.00  0.00    -0.027 A 
ATOM      6  C   UNL     1     -43.906  40.687  27.917  1.00  0.00    -0.032 A 
ATOM      7  H   UNL     1     -41.571  42.769  29.227  1.00  0.00     0.086 H 
ATOM      8  H   UNL     1     -42.760  39.153  30.713  1.00  0.00     0.084 H 
ATOM      9  H   UNL     1     -44.616  40.533  27.111  1.00  0.00     0.065 H 
ENDROOT
BRANCH   1  10
ATOM     10  N   UNL     1     -43.259  42.897  27.036  1.00  0.00    -0.299 N 
ATOM     11  C   UNL     1     -43.207  43.992  25.065  1.00  0.00     0.033 A 
ATOM     12  C   UNL     1     -42.936  42.797  25.695  1.00  0.00     0.021 A 
ATOM     13  C   UNL     1     -43.762  44.873  26.027  1.00  0.00     0.071 A 
ATOM     14  H   UNL     1     -42.548  41.887  25.261  1.00  0.00     0.083 H 
ATOM     15  C   UNL     1     -43.754  44.188  27.243  1.00  0.00     0.150 A 
ATOM     16  C   UNL     1     -44.292  46.176  26.042  1.00  0.00     0.137 A 
ATOM     17  N   UNL     1     -44.156  44.705  28.422  1.00  0.00    -0.218 NA
ATOM     18  N   UNL     1     -44.702  46.707  27.207  1.00  0.00    -0.219 NA
ATOM     19  C   UNL     1     -44.601  45.961  28.318  1.00  0.00     0.120 A 
ATOM     20  H   UNL     1     -44.929  46.432  29.239  1.00  0.00     0.106 H 
BRANCH  11  21
ATOM     21  C   UNL     1     -42.962  44.263  23.652  1.00  0.00     0.095 A 
ATOM     22  N   UNL     1     -43.234  44.969  21.681  1.00  0.00    -0.275 N 
ATOM     23  C   UNL     1     -42.082  44.240  21.626  1.00  0.00     0.025 A 
ATOM     24  N   UNL     1     -43.797  44.994  22.903  1.00  0.00    -0.173 NA
ATOM     25  C   UNL     1     -41.884  43.754  22.898  1.00  0.00    -0.016 A 
ATOM     26  H   UNL     1     -41.520  44.118  20.711  1.00  0.00     0.084 H 
ATOM     27  H   UNL     1     -41.077  43.114  23.230  1.00  0.00     0.066 H 
BRANCH  22  28
ATOM     28  C   UNL     1     -43.873  45.660  20.588  1.00  0.00     0.030 C 
ATOM     29  H   UNL     1     -44.752  46.181  20.973  1.00  0.00     0.048 H 
ATOM     30  H   UNL     1     -44.158  44.918  19.838  1.00  0.00     0.048 H 
ATOM     31  H   UNL     1     -43.175  46.382  20.157  1.00  0.00     0.048 H 
ENDBRANCH  22  28
ENDBRANCH  11  21
BRANCH  16  32
ATOM     32  N   UNL     1     -44.468  46.973  24.918  1.00  0.00    -0.383 N 
ATOM     33  H   UNL     1     -45.319  46.700  24.438  1.00  0.00     0.158 HD
ATOM     34  H   UNL     1     -43.646  47.040  24.330  1.00  0.00     0.158 HD
ENDBRANCH  16  32
ENDBRANCH   1  10
BRANCH   5  35
ATOM     35  C   UNL     1     -44.703  38.478  28.868  1.00  0.00    -0.022 C 
ATOM     36  H   UNL     1     -44.179  37.648  28.380  1.00  0.00     0.032 H 
ATOM     37  H   UNL     1     -44.883  38.149  29.901  1.00  0.00     0.032 H 
BRANCH  35  38
ATOM     38  C   UNL     1     -46.058  38.742  28.192  1.00  0.00    -0.024 C 
ATOM     39  H   UNL     1     -46.706  39.287  28.891  1.00  0.00     0.032 H 
ATOM     40  H   UNL     1     -45.930  39.403  27.324  1.00  0.00     0.032 H 
BRANCH  38  41
ATOM     41  C   UNL     1     -46.775  37.480  27.773  1.00  0.00    -0.046 A 
ATOM     42  C   UNL     1     -48.159  37.360  27.926  1.00  0.00    -0.058 A 
ATOM     43  C   UNL     1     -46.067  36.426  27.172  1.00  0.00    -0.032 A 
ATOM     44  C   UNL     1     -48.816  36.218  27.475  1.00  0.00    -0.052 A 
ATOM     45  H   UNL     1     -48.738  38.165  28.378  1.00  0.00     0.063 H 
ATOM     46  C   UNL     1     -46.696  35.274  26.719  1.00  0.00     0.073 A 
ATOM     47  H   UNL     1     -44.988  36.503  27.046  1.00  0.00     0.065 H 
ATOM     48  C   UNL     1     -48.095  35.176  26.870  1.00  0.00     0.001 A 
ATOM     49  H   UNL     1     -49.897  36.149  27.590  1.00  0.00     0.063 H 
ATOM     50  N   UNL     1     -45.961  34.303  26.147  1.00  0.00    -0.230 NA
ATOM     51  C   UNL     1     -48.726  34.019  26.402  1.00  0.00    -0.035 A 
ATOM     52  C   UNL     1     -46.586  33.195  25.704  1.00  0.00     0.138 A 
ATOM     53  C   UNL     1     -47.964  33.012  25.819  1.00  0.00     0.060 A 
ATOM     54  H   UNL     1     -49.803  33.906  26.495  1.00  0.00     0.064 H 
ATOM     55  Br  UNL     1     -48.829  31.443  25.206  1.00  0.00    -0.047 Br
BRANCH  52  56
ATOM     56  N   UNL     1     -45.745  32.223  25.164  1.00  0.00    -0.383 N 
ATOM     57  H   UNL     1     -46.329  31.449  24.859  1.00  0.00     0.158 HD
ATOM     58  H   UNL     1     -45.027  31.939  25.822  1.00  0.00     0.158 HD
ENDBRANCH  52  56
ENDBRANCH  38  41
ENDBRANCH  35  38
ENDBRANCH   5  35
TORSDOF 8
ENDMDL
MODEL 3
REMARK VINA RESULT:     -10.4      3.993     12.269
REMARK SMILES Cn1ccc(-c2cn(-c3cncc(CCc4ccc5cc(Br)c(N)nc5c4)c3)c3ncnc(N)c23)n1
REMARK SMILES IDX 9 1 10 2 11 3 12 4 13 5 28 6 8 10 6 11 7 12 35 13 29 15
REMARK SMILES IDX 33 16 30 17 32 18 31 19 5 21 2 22 3 23 36 24 4 25 1 28 34 32
REMARK SMILES IDX 14 35 15 38 16 41 17 42 27 43 18 44 26 46 19 48 25 50 20 51
REMARK SMILES IDX 23 52 21 53 22 55 24 56
REMARK H PARENT 10 7 12 8 28 9 7 14 31 20 3 26 4 27 1 29 1 30 1 31 34 33 34 34
REMARK H PARENT 14 36 14 37 15 39 15 40 17 45 27 47 18 49 20 54 24 57 24 58
REMARK Flexibility Score: inf
ROOT
ATOM      1  C   UNL     1     -47.856  32.448  25.477  1.00  0.00     0.066 A 
ATOM      2  C   UNL     1     -46.566  32.802  25.097  1.00  0.00     0.051 A 
ATOM      3  N   UNL     1     -45.990  34.000  25.378  1.00  0.00    -0.262 NA
ATOM      4  C   UNL     1     -46.727  34.891  26.070  1.00  0.00     0.030 A 
ATOM      5  C   UNL     1     -48.018  34.645  26.512  1.00  0.00    -0.027 A 
ATOM      6  C   UNL     1     -48.577  33.395  26.215  1.00  0.00    -0.032 A 
ATOM      7  H   UNL     1     -45.918  32.160  24.513  1.00  0.00     0.086 H 
ATOM      8  H   UNL     1     -46.232  35.840  26.259  1.00  0.00     0.084 H 
ATOM      9  H   UNL     1     -49.583  33.196  26.571  1.00  0.00     0.065 H 
ENDROOT
BRANCH   1  10
ATOM     10  N   UNL     1     -48.443  31.195  25.110  1.00  0.00    -0.299 N 
ATOM     11  C   UNL     1     -49.004  29.012  25.193  1.00  0.00     0.033 A 
ATOM     12  C   UNL     1     -48.300  30.018  25.820  1.00  0.00     0.021 A 
ATOM     13  C   UNL     1     -49.653  29.576  24.066  1.00  0.00     0.071 A 
ATOM     14  H   UNL     1     -47.724  29.959  26.732  1.00  0.00     0.083 H 
ATOM     15  C   UNL     1     -49.266  30.916  24.016  1.00  0.00     0.150 A 
ATOM     16  C   UNL     1     -50.541  29.140  23.066  1.00  0.00     0.137 A 
ATOM     17  N   UNL     1     -49.631  31.789  23.054  1.00  0.00    -0.218 NA
ATOM     18  N   UNL     1     -50.920  29.996  22.101  1.00  0.00    -0.219 NA
ATOM     19  C   UNL     1     -50.443  31.249  22.138  1.00  0.00     0.120 A 
ATOM     20  H   UNL     1     -50.760  31.904  21.333  1.00  0.00     0.106 H 
BRANCH  11  21
ATOM     21  C   UNL     1     -49.056  27.625  25.644  1.00  0.00     0.095 A 
ATOM     22  N   UNL     1     -48.437  25.683  26.193  1.00  0.00    -0.275 N 
ATOM     23  C   UNL     1     -49.799  25.637  26.253  1.00  0.00     0.025 A 
ATOM     24  N   UNL     1     -47.956  26.882  25.816  1.00  0.00    -0.173 NA
ATOM     25  C   UNL     1     -50.235  26.889  25.886  1.00  0.00    -0.016 A 
ATOM     26  H   UNL     1     -50.334  24.739  26.530  1.00  0.00     0.084 H 
ATOM     27  H   UNL     1     -51.261  27.220  25.799  1.00  0.00     0.066 H 
BRANCH  22  28
ATOM     28  C   UNL     1     -47.522  24.602  26.465  1.00  0.00     0.030 C 
ATOM     29  H   UNL     1     -47.330  24.065  25.534  1.00  0.00     0.048 H 
ATOM     30  H   UNL     1     -47.985  23.944  27.205  1.00  0.00     0.048 H 
ATOM     31  H   UNL     1     -46.586  25.008  26.857  1.00  0.00     0.048 H 
ENDBRANCH  22  28
ENDBRANCH  11  21
BRANCH  16  32
ATOM     32  N   UNL     1     -51.107  27.872  23.008  1.00  0.00    -0.383 N 
ATOM     33  H   UNL     1     -51.652  27.704  23.846  1.00  0.00     0.158 HD
ATOM     34  H   UNL     1     -50.449  27.140  22.769  1.00  0.00     0.158 HD
ENDBRANCH  16  32
ENDBRANCH   1  10
BRANCH   5  35
ATOM     35  C   UNL     1     -48.811  35.701  27.240  1.00  0.00    -0.022 C 
ATOM     36  H   UNL     1     -49.105  36.487  26.533  1.00  0.00     0.032 H 
ATOM     37  H   UNL     1     -49.750  35.255  27.593  1.00  0.00     0.032 H 
BRANCH  35  38
ATOM     38  C   UNL     1     -48.064  36.298  28.443  1.00  0.00    -0.024 C 
ATOM     39  H   UNL     1     -48.797  36.700  29.154  1.00  0.00     0.032 H 
ATOM     40  H   UNL     1     -47.520  35.512  28.984  1.00  0.00     0.032 H 
BRANCH  38  41
ATOM     41  C   UNL     1     -47.114  37.411  28.066  1.00  0.00    -0.046 A 
ATOM     42  C   UNL     1     -47.336  38.183  26.922  1.00  0.00    -0.058 A 
ATOM     43  C   UNL     1     -46.021  37.722  28.891  1.00  0.00    -0.032 A 
ATOM     44  C   UNL     1     -46.490  39.248  26.622  1.00  0.00    -0.052 A 
ATOM     45  H   UNL     1     -48.182  37.974  26.268  1.00  0.00     0.063 H 
ATOM     46  C   UNL     1     -45.158  38.774  28.612  1.00  0.00     0.073 A 
ATOM     47  H   UNL     1     -45.833  37.130  29.785  1.00  0.00     0.065 H 
ATOM     48  C   UNL     1     -45.405  39.550  27.461  1.00  0.00     0.001 A 
ATOM     49  H   UNL     1     -46.687  39.847  25.735  1.00  0.00     0.063 H 
ATOM     50  N   UNL     1     -44.132  39.024  29.446  1.00  0.00    -0.230 NA
ATOM     51  C   UNL     1     -44.540  40.616  27.189  1.00  0.00    -0.035 A 
ATOM     52  C   UNL     1     -43.309  40.053  29.167  1.00  0.00     0.138 A 
ATOM     53  C   UNL     1     -43.475  40.867  28.048  1.00  0.00     0.060 A 
ATOM     54  H   UNL     1     -44.698  41.241  26.315  1.00  0.00     0.064 H 
ATOM     55  Br  UNL     1     -42.301  42.302  27.659  1.00  0.00    -0.047 Br
BRANCH  52  56
ATOM     56  N   UNL     1     -42.248  40.214  30.059  1.00  0.00    -0.383 N 
ATOM     57  H   UNL     1     -41.611  39.434  29.919  1.00  0.00     0.158 HD
ATOM     58  H   UNL     1     -42.571  40.291  31.017  1.00  0.00     0.158 HD
ENDBRANCH  52  56
ENDBRANCH  38  41
ENDBRANCH  35  38
ENDBRANCH   5  35
TORSDOF 8
ENDMDL
MODEL 4
REMARK VINA RESULT:     -10.4      3.858     12.041
REMARK SMILES Cn1ccc(-c2cn(-c3cncc(CCc4ccc5cc(Br)c(N)nc5c4)c3)c3ncnc(N)c23)n1
REMARK SMILES IDX 9 1 10 2 11 3 12 4 13 5 28 6 8 10 6 11 7 12 35 13 29 15
REMARK SMILES IDX 33 16 30 17 32 18 31 19 5 21 2 22 3 23 36 24 4 25 1 28 34 32
REMARK SMILES IDX 14 35 15 38 16 41 17 42 27 43 18 44 26 46 19 48 25 50 20 51
REMARK SMILES IDX 23 52 21 53 22 55 24 56
REMARK H PARENT 10 7 12 8 28 9 7 14 31 20 3 26 4 27 1 29 1 30 1 31 34 33 34 34
REMARK H PARENT 14 36 14 37 15 39 15 40 17 45 27 47 18 49 20 54 24 57 24 58
REMARK Flexibility Score: inf
ROOT
ATOM      1  C   UNL     1     -47.523  32.261  25.422  1.00  0.00     0.066 A 
ATOM      2  C   UNL     1     -46.179  32.613  25.379  1.00  0.00     0.051 A 
ATOM      3  N   UNL     1     -45.690  33.810  25.797  1.00  0.00    -0.262 NA
ATOM      4  C   UNL     1     -46.576  34.703  26.281  1.00  0.00     0.030 A 
ATOM      5  C   UNL     1     -47.938  34.459  26.383  1.00  0.00    -0.027 A 
ATOM      6  C   UNL     1     -48.406  33.209  25.954  1.00  0.00    -0.032 A 
ATOM      7  H   UNL     1     -45.405  31.970  24.977  1.00  0.00     0.086 H 
ATOM      8  H   UNL     1     -46.143  35.651  26.589  1.00  0.00     0.084 H 
ATOM      9  H   UNL     1     -49.469  33.012  26.045  1.00  0.00     0.065 H 
ENDROOT
BRANCH   1  10
ATOM     10  N   UNL     1     -48.001  31.009  24.919  1.00  0.00    -0.299 N 
ATOM     11  C   UNL     1     -48.913  28.947  24.887  1.00  0.00     0.033 A 
ATOM     12  C   UNL     1     -48.551  30.005  25.693  1.00  0.00     0.021 A 
ATOM     13  C   UNL     1     -48.622  29.304  23.546  1.00  0.00     0.071 A 
ATOM     14  H   UNL     1     -48.669  30.098  26.763  1.00  0.00     0.083 H 
ATOM     15  C   UNL     1     -48.030  30.567  23.593  1.00  0.00     0.150 A 
ATOM     16  C   UNL     1     -48.789  28.734  22.271  1.00  0.00     0.137 A 
ATOM     17  N   UNL     1     -47.559  31.238  22.522  1.00  0.00    -0.218 NA
ATOM     18  N   UNL     1     -48.330  29.389  21.191  1.00  0.00    -0.219 NA
ATOM     19  C   UNL     1     -47.737  30.579  21.372  1.00  0.00     0.120 A 
ATOM     20  H   UNL     1     -47.368  31.068  20.477  1.00  0.00     0.106 H 
BRANCH  11  21
ATOM     21  C   UNL     1     -49.498  27.698  25.365  1.00  0.00     0.095 A 
ATOM     22  N   UNL     1     -50.910  26.310  26.097  1.00  0.00    -0.275 N 
ATOM     23  C   UNL     1     -49.733  25.621  26.079  1.00  0.00     0.025 A 
ATOM     24  N   UNL     1     -50.795  27.582  25.674  1.00  0.00    -0.173 NA
ATOM     25  C   UNL     1     -48.786  26.506  25.616  1.00  0.00    -0.016 A 
ATOM     26  H   UNL     1     -49.662  24.591  26.400  1.00  0.00     0.084 H 
ATOM     27  H   UNL     1     -47.729  26.318  25.487  1.00  0.00     0.066 H 
BRANCH  22  28
ATOM     28  C   UNL     1     -52.194  25.817  26.531  1.00  0.00     0.030 C 
ATOM     29  H   UNL     1     -52.959  26.545  26.253  1.00  0.00     0.048 H 
ATOM     30  H   UNL     1     -52.159  25.686  27.616  1.00  0.00     0.048 H 
ATOM     31  H   UNL     1     -52.400  24.860  26.044  1.00  0.00     0.048 H 
ENDBRANCH  22  28
ENDBRANCH  11  21
BRANCH  16  32
ATOM     32  N   UNL     1     -49.439  27.533  22.020  1.00  0.00    -0.383 N 
ATOM     33  H   UNL     1     -50.120  27.355  22.751  1.00  0.00     0.158 HD
ATOM     34  H   UNL     1     -48.813  26.762  21.820  1.00  0.00     0.158 HD
ENDBRANCH  16  32
ENDBRANCH   1  10
BRANCH   5  35
ATOM     35  C   UNL     1     -48.887  35.516  26.887  1.00  0.00    -0.022 C 
ATOM     36  H   UNL     1     -48.900  36.358  26.185  1.00  0.00     0.032 H 
ATOM     37  H   UNL     1     -49.906  35.107  26.879  1.00  0.00     0.032 H 
BRANCH  35  38
ATOM     38  C   UNL     1     -48.558  35.997  28.310  1.00  0.00    -0.024 C 
ATOM     39  H   UNL     1     -49.449  36.470  28.741  1.00  0.00     0.032 H 
ATOM     40  H   UNL     1     -48.329  35.141  28.959  1.00  0.00     0.032 H 
BRANCH  38  41
ATOM     41  C   UNL     1     -47.424  36.994  28.358  1.00  0.00    -0.046 A 
ATOM     42  C   UNL     1     -46.398  36.863  29.298  1.00  0.00    -0.058 A 
ATOM     43  C   UNL     1     -47.357  38.040  27.423  1.00  0.00    -0.032 A 
ATOM     44  C   UNL     1     -45.325  37.752  29.290  1.00  0.00    -0.052 A 
ATOM     45  H   UNL     1     -46.417  36.056  30.030  1.00  0.00     0.063 H 
ATOM     46  C   UNL     1     -46.301  38.943  27.396  1.00  0.00     0.073 A 
ATOM     47  H   UNL     1     -48.148  38.156  26.685  1.00  0.00     0.065 H 
ATOM     48  C   UNL     1     -45.269  38.788  28.344  1.00  0.00     0.001 A 
ATOM     49  H   UNL     1     -44.528  37.625  30.020  1.00  0.00     0.063 H 
ATOM     50  N   UNL     1     -46.293  39.919  26.471  1.00  0.00    -0.230 NA
ATOM     51  C   UNL     1     -44.202  39.692  28.306  1.00  0.00    -0.035 A 
ATOM     52  C   UNL     1     -45.259  40.782  26.451  1.00  0.00     0.138 A 
ATOM     53  C   UNL     1     -44.200  40.706  27.354  1.00  0.00     0.060 A 
ATOM     54  H   UNL     1     -43.384  39.605  29.015  1.00  0.00     0.064 H 
ATOM     55  Br  UNL     1     -42.758  41.935  27.325  1.00  0.00    -0.047 Br
BRANCH  52  56
ATOM     56  N   UNL     1     -45.352  41.787  25.488  1.00  0.00    -0.383 N 
ATOM     57  H   UNL     1     -46.189  42.326  25.690  1.00  0.00     0.158 HD
ATOM     58  H   UNL     1     -45.345  41.408  24.547  1.00  0.00     0.158 HD
ENDBRANCH  52  56
ENDBRANCH  38  41
ENDBRANCH  35  38
ENDBRANCH   5  35
TORSDOF 8
ENDMDL
MODEL 5
REMARK VINA RESULT:     -10.3      1.640      1.995
REMARK SMILES Cn1ccc(-c2cn(-c3cncc(CCc4ccc5cc(Br)c(N)nc5c4)c3)c3ncnc(N)c23)n1
REMARK SMILES IDX 9 1 10 2 11 3 12 4 13 5 28 6 8 10 6 11 7 12 35 13 29 15
REMARK SMILES IDX 33 16 30 17 32 18 31 19 5 21 2 22 3 23 36 24 4 25 1 28 34 32
REMARK SMILES IDX 14 35 15 38 16 41 17 42 27 43 18 44 26 46 19 48 25 50 20 51
REMARK SMILES IDX 23 52 21 53 22 55 24 56
REMARK H PARENT 10 7 12 8 28 9 7 14 31 20 3 26 4 27 1 29 1 30 1 31 34 33 34 34
REMARK H PARENT 14 36 14 37 15 39 15 40 17 45 27 47 18 49 20 54 24 57 24 58
REMARK Flexibility Score: inf
ROOT
ATOM      1  C   UNL     1     -46.685  39.684  27.323  1.00  0.00     0.066 A 
ATOM      2  C   UNL     1     -47.950  40.065  27.757  1.00  0.00     0.051 A 
ATOM      3  N   UNL     1     -48.914  39.195  28.157  1.00  0.00    -0.262 NA
ATOM      4  C   UNL     1     -48.610  37.882  28.125  1.00  0.00     0.030 A 
ATOM      5  C   UNL     1     -47.379  37.385  27.723  1.00  0.00    -0.027 A 
ATOM      6  C   UNL     1     -46.404  38.312  27.329  1.00  0.00    -0.032 A 
ATOM      7  H   UNL     1     -48.288  41.094  27.785  1.00  0.00     0.086 H 
ATOM      8  H   UNL     1     -49.415  37.222  28.439  1.00  0.00     0.084 H 
ATOM      9  H   UNL     1     -45.436  37.926  27.026  1.00  0.00     0.065 H 
ENDROOT
BRANCH   1  10
ATOM     10  N   UNL     1     -45.720  40.633  26.858  1.00  0.00    -0.299 N 
ATOM     11  C   UNL     1     -44.769  42.246  25.601  1.00  0.00     0.033 A 
ATOM     12  C   UNL     1     -45.884  41.451  25.756  1.00  0.00     0.021 A 
ATOM     13  C   UNL     1     -43.878  41.954  26.665  1.00  0.00     0.071 A 
ATOM     14  H   UNL     1     -46.781  41.437  25.154  1.00  0.00     0.083 H 
ATOM     15  C   UNL     1     -44.471  40.933  27.409  1.00  0.00     0.150 A 
ATOM     16  C   UNL     1     -42.635  42.426  27.123  1.00  0.00     0.137 A 
ATOM     17  N   UNL     1     -43.912  40.337  28.482  1.00  0.00    -0.218 NA
ATOM     18  N   UNL     1     -42.063  41.847  28.193  1.00  0.00    -0.219 NA
ATOM     19  C   UNL     1     -42.715  40.842  28.797  1.00  0.00     0.120 A 
ATOM     20  H   UNL     1     -42.214  40.392  29.648  1.00  0.00     0.106 H 
BRANCH  11  21
ATOM     21  C   UNL     1     -44.577  43.212  24.524  1.00  0.00     0.095 A 
ATOM     22  N   UNL     1     -43.670  44.291  22.952  1.00  0.00    -0.275 N 
ATOM     23  C   UNL     1     -44.873  44.907  23.140  1.00  0.00     0.025 A 
ATOM     24  N   UNL     1     -43.459  43.258  23.788  1.00  0.00    -0.173 NA
ATOM     25  C   UNL     1     -45.485  44.232  24.170  1.00  0.00    -0.016 A 
ATOM     26  H   UNL     1     -45.182  45.759  22.551  1.00  0.00     0.084 H 
ATOM     27  H   UNL     1     -46.448  44.452  24.609  1.00  0.00     0.066 H 
BRANCH  22  28
ATOM     28  C   UNL     1     -42.652  44.652  21.996  1.00  0.00     0.030 C 
ATOM     29  H   UNL     1     -42.423  43.777  21.383  1.00  0.00     0.048 H 
ATOM     30  H   UNL     1     -41.769  44.981  22.549  1.00  0.00     0.048 H 
ATOM     31  H   UNL     1     -43.022  45.462  21.361  1.00  0.00     0.048 H 
ENDBRANCH  22  28
ENDBRANCH  11  21
BRANCH  16  32
ATOM     32  N   UNL     1     -41.940  43.495  26.570  1.00  0.00    -0.383 N 
ATOM     33  H   UNL     1     -41.196  43.778  27.198  1.00  0.00     0.158 HD
ATOM     34  H   UNL     1     -42.536  44.247  26.245  1.00  0.00     0.158 HD
ENDBRANCH  16  32
ENDBRANCH   1  10
BRANCH   5  35
ATOM     35  C   UNL     1     -47.115  35.902  27.662  1.00  0.00    -0.022 C 
ATOM     36  H   UNL     1     -46.420  35.622  28.462  1.00  0.00     0.032 H 
ATOM     37  H   UNL     1     -48.050  35.369  27.881  1.00  0.00     0.032 H 
BRANCH  35  38
ATOM     38  C   UNL     1     -46.590  35.436  26.294  1.00  0.00    -0.024 C 
ATOM     39  H   UNL     1     -46.854  36.185  25.536  1.00  0.00     0.032 H 
ATOM     40  H   UNL     1     -45.493  35.390  26.301  1.00  0.00     0.032 H 
BRANCH  38  41
ATOM     41  C   UNL     1     -47.155  34.105  25.857  1.00  0.00    -0.046 A 
ATOM     42  C   UNL     1     -48.404  33.675  26.314  1.00  0.00    -0.058 A 
ATOM     43  C   UNL     1     -46.456  33.303  24.941  1.00  0.00    -0.032 A 
ATOM     44  C   UNL     1     -48.943  32.476  25.852  1.00  0.00    -0.052 A 
ATOM     45  H   UNL     1     -48.976  34.280  27.017  1.00  0.00     0.063 H 
ATOM     46  C   UNL     1     -46.968  32.100  24.468  1.00  0.00     0.073 A 
ATOM     47  H   UNL     1     -45.482  33.623  24.575  1.00  0.00     0.065 H 
ATOM     48  C   UNL     1     -48.234  31.688  24.930  1.00  0.00     0.001 A 
ATOM     49  H   UNL     1     -49.923  32.164  26.208  1.00  0.00     0.063 H 
ATOM     50  N   UNL     1     -46.250  31.381  23.586  1.00  0.00    -0.230 NA
ATOM     51  C   UNL     1     -48.750  30.482  24.444  1.00  0.00    -0.035 A 
ATOM     52  C   UNL     1     -46.762  30.222  23.130  1.00  0.00     0.138 A 
ATOM     53  C   UNL     1     -48.003  29.736  23.538  1.00  0.00     0.060 A 
ATOM     54  H   UNL     1     -49.724  30.132  24.771  1.00  0.00     0.064 H 
ATOM     55  Br  UNL     1     -48.706  28.096  22.901  1.00  0.00    -0.047 Br
BRANCH  52  56
ATOM     56  N   UNL     1     -45.935  29.520  22.253  1.00  0.00    -0.383 N 
ATOM     57  H   UNL     1     -45.075  30.052  22.153  1.00  0.00     0.158 HD
ATOM     58  H   UNL     1     -46.393  29.342  21.365  1.00  0.00     0.158 HD
ENDBRANCH  52  56
ENDBRANCH  38  41
ENDBRANCH  35  38
ENDBRANCH   5  35
TORSDOF 8
ENDMDL
MODEL 6
REMARK VINA RESULT:     -10.3      2.061      3.292
REMARK SMILES Cn1ccc(-c2cn(-c3cncc(CCc4ccc5cc(Br)c(N)nc5c4)c3)c3ncnc(N)c23)n1
REMARK SMILES IDX 9 1 10 2 11 3 12 4 13 5 28 6 8 10 6 11 7 12 35 13 29 15
REMARK SMILES IDX 33 16 30 17 32 18 31 19 5 21 2 22 3 23 36 24 4 25 1 28 34 32
REMARK SMILES IDX 14 35 15 38 16 41 17 42 27 43 18 44 26 46 19 48 25 50 20 51
REMARK SMILES IDX 23 52 21 53 22 55 24 56
REMARK H PARENT 10 7 12 8 28 9 7 14 31 20 3 26 4 27 1 29 1 30 1 31 34 33 34 34
REMARK H PARENT 14 36 14 37 15 39 15 40 17 45 27 47 18 49 20 54 24 57 24 58
REMARK Flexibility Score: inf
ROOT
ATOM      1  C   UNL     1     -45.515  39.063  28.234  1.00  0.00     0.066 A 
ATOM      2  C   UNL     1     -44.626  38.805  29.272  1.00  0.00     0.051 A 
ATOM      3  N   UNL     1     -44.713  37.735  30.104  1.00  0.00    -0.262 NA
ATOM      4  C   UNL     1     -45.733  36.877  29.899  1.00  0.00     0.030 A 
ATOM      5  C   UNL     1     -46.672  37.024  28.889  1.00  0.00    -0.027 A 
ATOM      6  C   UNL     1     -46.544  38.133  28.042  1.00  0.00    -0.032 A 
ATOM      7  H   UNL     1     -43.798  39.457  29.526  1.00  0.00     0.086 H 
ATOM      8  H   UNL     1     -45.773  36.044  30.597  1.00  0.00     0.084 H 
ATOM      9  H   UNL     1     -47.272  38.243  27.244  1.00  0.00     0.065 H 
ENDROOT
BRANCH   1  10
ATOM     10  N   UNL     1     -45.416  40.233  27.417  1.00  0.00    -0.299 N 
ATOM     11  C   UNL     1     -44.519  41.825  26.094  1.00  0.00     0.033 A 
ATOM     12  C   UNL     1     -44.255  40.680  26.813  1.00  0.00     0.021 A 
ATOM     13  C   UNL     1     -45.906  42.098  26.208  1.00  0.00     0.071 A 
ATOM     14  H   UNL     1     -43.314  40.158  26.913  1.00  0.00     0.083 H 
ATOM     15  C   UNL     1     -46.433  41.121  27.056  1.00  0.00     0.150 A 
ATOM     16  C   UNL     1     -46.814  43.042  25.696  1.00  0.00     0.137 A 
ATOM     17  N   UNL     1     -47.719  41.062  27.459  1.00  0.00    -0.218 NA
ATOM     18  N   UNL     1     -48.101  42.997  26.083  1.00  0.00    -0.219 NA
ATOM     19  C   UNL     1     -48.475  42.035  26.939  1.00  0.00     0.120 A 
ATOM     20  H   UNL     1     -49.518  42.042  27.237  1.00  0.00     0.106 H 
BRANCH  11  21
ATOM     21  C   UNL     1     -43.524  42.592  25.351  1.00  0.00     0.095 A 
ATOM     22  N   UNL     1     -42.566  43.610  23.769  1.00  0.00    -0.275 N 
ATOM     23  C   UNL     1     -41.658  43.630  24.787  1.00  0.00     0.025 A 
ATOM     24  N   UNL     1     -43.711  42.976  24.082  1.00  0.00    -0.173 NA
ATOM     25  C   UNL     1     -42.250  42.960  25.833  1.00  0.00    -0.016 A 
ATOM     26  H   UNL     1     -40.687  44.094  24.685  1.00  0.00     0.084 H 
ATOM     27  H   UNL     1     -41.818  42.760  26.804  1.00  0.00     0.066 H 
BRANCH  22  28
ATOM     28  C   UNL     1     -42.398  44.165  22.448  1.00  0.00     0.030 C 
ATOM     29  H   UNL     1     -43.094  43.667  21.770  1.00  0.00     0.048 H 
ATOM     30  H   UNL     1     -41.364  43.994  22.139  1.00  0.00     0.048 H 
ATOM     31  H   UNL     1     -42.610  45.236  22.475  1.00  0.00     0.048 H 
ENDBRANCH  22  28
ENDBRANCH  11  21
BRANCH  16  32
ATOM     32  N   UNL     1     -46.494  44.026  24.769  1.00  0.00    -0.383 N 
ATOM     33  H   UNL     1     -46.564  43.646  23.832  1.00  0.00     0.158 HD
ATOM     34  H   UNL     1     -45.630  44.514  24.971  1.00  0.00     0.158 HD
ENDBRANCH  16  32
ENDBRANCH   1  10
BRANCH   5  35
ATOM     35  C   UNL     1     -47.820  36.057  28.741  1.00  0.00    -0.022 C 
ATOM     36  H   UNL     1     -47.490  35.053  29.032  1.00  0.00     0.032 H 
ATOM     37  H   UNL     1     -48.605  36.330  29.459  1.00  0.00     0.032 H 
BRANCH  35  38
ATOM     38  C   UNL     1     -48.424  36.047  27.328  1.00  0.00    -0.024 C 
ATOM     39  H   UNL     1     -49.517  35.984  27.407  1.00  0.00     0.032 H 
ATOM     40  H   UNL     1     -48.215  36.996  26.815  1.00  0.00     0.032 H 
BRANCH  38  41
ATOM     41  C   UNL     1     -47.947  34.891  26.480  1.00  0.00    -0.046 A 
ATOM     42  C   UNL     1     -46.681  34.916  25.887  1.00  0.00    -0.058 A 
ATOM     43  C   UNL     1     -48.748  33.749  26.319  1.00  0.00    -0.032 A 
ATOM     44  C   UNL     1     -46.227  33.815  25.163  1.00  0.00    -0.052 A 
ATOM     45  H   UNL     1     -46.032  35.782  26.004  1.00  0.00     0.063 H 
ATOM     46  C   UNL     1     -48.322  32.641  25.597  1.00  0.00     0.073 A 
ATOM     47  H   UNL     1     -49.736  33.714  26.773  1.00  0.00     0.065 H 
ATOM     48  C   UNL     1     -47.038  32.678  25.017  1.00  0.00     0.001 A 
ATOM     49  H   UNL     1     -45.233  33.847  24.721  1.00  0.00     0.063 H 
ATOM     50  N   UNL     1     -49.136  31.576  25.485  1.00  0.00    -0.230 NA
ATOM     51  C   UNL     1     -46.608  31.557  24.300  1.00  0.00    -0.035 A 
ATOM     52  C   UNL     1     -48.706  30.505  24.789  1.00  0.00     0.138 A 
ATOM     53  C   UNL     1     -47.454  30.459  24.177  1.00  0.00     0.060 A 
ATOM     54  H   UNL     1     -45.624  31.543  23.842  1.00  0.00     0.064 H 
ATOM     55  Br  UNL     1     -46.868  28.953  23.189  1.00  0.00    -0.047 Br
BRANCH  52  56
ATOM     56  N   UNL     1     -49.628  29.463  24.687  1.00  0.00    -0.383 N 
ATOM     57  H   UNL     1     -49.111  28.622  24.448  1.00  0.00     0.158 HD
ATOM     58  H   UNL     1     -50.363  29.676  24.022  1.00  0.00     0.158 HD
ENDBRANCH  52  56
ENDBRANCH  38  41
ENDBRANCH  35  38
ENDBRANCH   5  35
TORSDOF 8
ENDMDL
MODEL 7
REMARK VINA RESULT:     -10.0      3.774     11.733
REMARK SMILES Cn1ccc(-c2cn(-c3cncc(CCc4ccc5cc(Br)c(N)nc5c4)c3)c3ncnc(N)c23)n1
REMARK SMILES IDX 9 1 10 2 11 3 12 4 13 5 28 6 8 10 6 11 7 12 35 13 29 15
REMARK SMILES IDX 33 16 30 17 32 18 31 19 5 21 2 22 3 23 36 24 4 25 1 28 34 32
REMARK SMILES IDX 14 35 15 38 16 41 17 42 27 43 18 44 26 46 19 48 25 50 20 51
REMARK SMILES IDX 23 52 21 53 22 55 24 56
REMARK H PARENT 10 7 12 8 28 9 7 14 31 20 3 26 4 27 1 29 1 30 1 31 34 33 34 34
REMARK H PARENT 14 36 14 37 15 39 15 40 17 45 27 47 18 49 20 54 24 57 24 58
REMARK Flexibility Score: inf
ROOT
ATOM      1  C   UNL     1     -47.156  32.697  26.231  1.00  0.00     0.066 A 
ATOM      2  C   UNL     1     -46.417  32.385  27.366  1.00  0.00     0.051 A 
ATOM      3  N   UNL     1     -45.946  33.305  28.247  1.00  0.00    -0.262 NA
ATOM      4  C   UNL     1     -46.219  34.600  27.990  1.00  0.00     0.030 A 
ATOM      5  C   UNL     1     -46.957  35.030  26.897  1.00  0.00    -0.027 A 
ATOM      6  C   UNL     1     -47.438  34.052  26.016  1.00  0.00    -0.032 A 
ATOM      7  H   UNL     1     -46.126  31.375  27.630  1.00  0.00     0.086 H 
ATOM      8  H   UNL     1     -45.810  35.302  28.712  1.00  0.00     0.084 H 
ATOM      9  H   UNL     1     -48.026  34.386  25.166  1.00  0.00     0.065 H 
ENDROOT
BRANCH   1  10
ATOM     10  N   UNL     1     -47.586  31.698  25.300  1.00  0.00    -0.299 N 
ATOM     11  C   UNL     1     -48.738  29.963  24.435  1.00  0.00     0.033 A 
ATOM     12  C   UNL     1     -48.571  30.760  25.546  1.00  0.00     0.021 A 
ATOM     13  C   UNL     1     -47.857  30.433  23.428  1.00  0.00     0.071 A 
ATOM     14  H   UNL     1     -49.107  30.718  26.483  1.00  0.00     0.083 H 
ATOM     15  C   UNL     1     -47.133  31.484  23.995  1.00  0.00     0.150 A 
ATOM     16  C   UNL     1     -47.570  30.124  22.086  1.00  0.00     0.137 A 
ATOM     17  N   UNL     1     -46.151  32.167  23.373  1.00  0.00    -0.218 NA
ATOM     18  N   UNL     1     -46.597  30.797  21.448  1.00  0.00    -0.219 NA
ATOM     19  C   UNL     1     -45.942  31.757  22.117  1.00  0.00     0.120 A 
ATOM     20  H   UNL     1     -45.155  32.266  21.572  1.00  0.00     0.106 H 
BRANCH  11  21
ATOM     21  C   UNL     1     -49.672  28.845  24.343  1.00  0.00     0.095 A 
ATOM     22  N   UNL     1     -51.287  27.645  23.705  1.00  0.00    -0.275 N 
ATOM     23  C   UNL     1     -50.763  26.974  24.771  1.00  0.00     0.025 A 
ATOM     24  N   UNL     1     -50.646  28.794  23.426  1.00  0.00    -0.173 NA
ATOM     25  C   UNL     1     -49.712  27.740  25.219  1.00  0.00    -0.016 A 
ATOM     26  H   UNL     1     -51.176  26.039  25.124  1.00  0.00     0.084 H 
ATOM     27  H   UNL     1     -49.071  27.533  26.065  1.00  0.00     0.066 H 
BRANCH  22  28
ATOM     28  C   UNL     1     -52.425  27.252  22.910  1.00  0.00     0.030 C 
ATOM     29  H   UNL     1     -53.306  27.783  23.277  1.00  0.00     0.048 H 
ATOM     30  H   UNL     1     -52.552  26.172  23.011  1.00  0.00     0.048 H 
ATOM     31  H   UNL     1     -52.244  27.514  21.865  1.00  0.00     0.048 H 
ENDBRANCH  22  28
ENDBRANCH  11  21
BRANCH  16  32
ATOM     32  N   UNL     1     -48.250  29.179  21.329  1.00  0.00    -0.383 N 
ATOM     33  H   UNL     1     -48.436  28.359  21.896  1.00  0.00     0.158 HD
ATOM     34  H   UNL     1     -47.824  28.991  20.429  1.00  0.00     0.158 HD
ENDBRANCH  16  32
ENDBRANCH   1  10
BRANCH   5  35
ATOM     35  C   UNL     1     -47.188  36.497  26.636  1.00  0.00    -0.022 C 
ATOM     36  H   UNL     1     -46.811  36.754  25.639  1.00  0.00     0.032 H 
ATOM     37  H   UNL     1     -48.270  36.682  26.601  1.00  0.00     0.032 H 
BRANCH  35  38
ATOM     38  C   UNL     1     -46.565  37.408  27.707  1.00  0.00    -0.024 C 
ATOM     39  H   UNL     1     -47.271  37.512  28.541  1.00  0.00     0.032 H 
ATOM     40  H   UNL     1     -45.666  36.940  28.131  1.00  0.00     0.032 H 
BRANCH  38  41
ATOM     41  C   UNL     1     -46.230  38.790  27.197  1.00  0.00    -0.046 A 
ATOM     42  C   UNL     1     -47.237  39.645  26.737  1.00  0.00    -0.058 A 
ATOM     43  C   UNL     1     -44.906  39.257  27.226  1.00  0.00    -0.032 A 
ATOM     44  C   UNL     1     -46.922  40.940  26.332  1.00  0.00    -0.052 A 
ATOM     45  H   UNL     1     -48.275  39.315  26.713  1.00  0.00     0.063 H 
ATOM     46  C   UNL     1     -44.565  40.542  26.823  1.00  0.00     0.073 A 
ATOM     47  H   UNL     1     -44.111  38.604  27.580  1.00  0.00     0.065 H 
ATOM     48  C   UNL     1     -45.595  41.394  26.374  1.00  0.00     0.001 A 
ATOM     49  H   UNL     1     -47.721  41.596  25.991  1.00  0.00     0.063 H 
ATOM     50  N   UNL     1     -43.278  40.930  26.881  1.00  0.00    -0.230 NA
ATOM     51  C   UNL     1     -45.248  42.691  25.979  1.00  0.00    -0.035 A 
ATOM     52  C   UNL     1     -42.963  42.182  26.494  1.00  0.00     0.138 A 
ATOM     53  C   UNL     1     -43.916  43.088  26.031  1.00  0.00     0.060 A 
ATOM     54  H   UNL     1     -46.012  43.380  25.632  1.00  0.00     0.064 H 
ATOM     55  Br  UNL     1     -43.458  44.840  25.476  1.00  0.00    -0.047 Br
BRANCH  52  56
ATOM     56  N   UNL     1     -41.603  42.487  26.547  1.00  0.00    -0.383 N 
ATOM     57  H   UNL     1     -41.432  42.965  27.427  1.00  0.00     0.158 HD
ATOM     58  H   UNL     1     -41.307  43.027  25.741  1.00  0.00     0.158 HD
ENDBRANCH  52  56
ENDBRANCH  38  41
ENDBRANCH  35  38
ENDBRANCH   5  35
TORSDOF 8
ENDMDL
