MODEL 1
REMARK VINA RESULT:     -10.2      0.000      0.000
REMARK SMILES CCNc1ccc2ccc(OCc3cncc(-n4cc(Cl)c5c(N)ncnc54)c3)cc2n1
REMARK SMILES IDX 11 1 10 2 4 3 5 4 32 5 6 6 31 8 7 9 30 11 8 12 9 14 3 17
REMARK SMILES IDX 2 19 1 22 12 26 13 29 14 30 29 31 15 32 17 34 16 36 18 38
REMARK SMILES IDX 19 39 28 40 20 41 22 43 27 44 21 45 23 46 26 47 25 48 24 50
REMARK H PARENT 5 7 6 10 30 13 8 15 9 16 3 18 2 20 2 21 1 23 1 24 1 25 12 27
REMARK H PARENT 12 28 14 33 29 35 16 37 19 42 26 49 24 51 24 52
REMARK Flexibility Score: inf
ROOT
ATOM      1  O   UNL     1     -46.822  37.316  28.021  1.00  0.00    -0.489 OA
ENDROOT
BRANCH   1   2
ATOM      2  C   UNL     1     -45.787  37.967  28.635  1.00  0.00     0.122 A 
ATOM      3  C   UNL     1     -42.580  41.429  27.975  1.00  0.00     0.126 A 
ATOM      4  C   UNL     1     -41.962  41.145  29.188  1.00  0.00    -0.019 A 
ATOM      5  N   UNL     1     -43.652  40.730  27.553  1.00  0.00    -0.231 NA
ATOM      6  C   UNL     1     -42.470  40.134  29.997  1.00  0.00    -0.049 A 
ATOM      7  H   UNL     1     -41.081  41.698  29.497  1.00  0.00     0.066 H 
ATOM      8  C   UNL     1     -44.150  39.749  28.330  1.00  0.00     0.076 A 
ATOM      9  C   UNL     1     -43.587  39.411  29.572  1.00  0.00     0.001 A 
ATOM     10  H   UNL     1     -41.984  39.910  30.942  1.00  0.00     0.063 H 
ATOM     11  C   UNL     1     -45.249  39.025  27.893  1.00  0.00     0.007 A 
ATOM     12  C   UNL     1     -44.135  38.370  30.340  1.00  0.00    -0.049 A 
ATOM     13  H   UNL     1     -45.683  39.271  26.926  1.00  0.00     0.069 H 
ATOM     14  C   UNL     1     -45.233  37.647  29.871  1.00  0.00    -0.019 A 
ATOM     15  H   UNL     1     -43.699  38.105  31.301  1.00  0.00     0.063 H 
ATOM     16  H   UNL     1     -45.615  36.840  30.486  1.00  0.00     0.066 H 
BRANCH   3  17
ATOM     17  N   UNL     1     -42.021  42.440  27.176  1.00  0.00    -0.370 N 
ATOM     18  H   UNL     1     -41.422  43.014  27.763  1.00  0.00     0.162 HD
BRANCH  17  19
ATOM     19  C   UNL     1     -42.965  43.260  26.419  1.00  0.00     0.013 C 
ATOM     20  H   UNL     1     -43.260  44.100  27.059  1.00  0.00     0.049 H 
ATOM     21  H   UNL     1     -43.889  42.719  26.182  1.00  0.00     0.049 H 
BRANCH  19  22
ATOM     22  C   UNL     1     -42.319  43.833  25.167  1.00  0.00    -0.048 C 
ATOM     23  H   UNL     1     -41.948  43.046  24.503  1.00  0.00     0.025 H 
ATOM     24  H   UNL     1     -41.473  44.479  25.423  1.00  0.00     0.025 H 
ATOM     25  H   UNL     1     -43.046  44.429  24.606  1.00  0.00     0.025 H 
ENDBRANCH  19  22
ENDBRANCH  17  19
ENDBRANCH   3  17
ENDBRANCH   1   2
BRANCH   1  26
ATOM     26  C   UNL     1     -46.583  36.659  26.771  1.00  0.00     0.115 C 
ATOM     27  H   UNL     1     -45.555  36.920  26.492  1.00  0.00     0.076 H 
ATOM     28  H   UNL     1     -47.227  37.076  25.988  1.00  0.00     0.076 H 
BRANCH  26  29
ATOM     29  C   UNL     1     -46.663  35.151  26.811  1.00  0.00     0.010 A 
ATOM     30  C   UNL     1     -46.088  34.463  27.872  1.00  0.00     0.034 A 
ATOM     31  C   UNL     1     -47.318  34.386  25.836  1.00  0.00    -0.028 A 
ATOM     32  N   UNL     1     -46.111  33.119  28.006  1.00  0.00    -0.262 NA
ATOM     33  H   UNL     1     -45.577  34.987  28.677  1.00  0.00     0.084 H 
ATOM     34  C   UNL     1     -47.336  32.991  25.917  1.00  0.00     0.066 A 
ATOM     35  H   UNL     1     -47.824  34.904  25.027  1.00  0.00     0.065 H 
ATOM     36  C   UNL     1     -46.728  32.415  27.026  1.00  0.00     0.051 A 
ATOM     37  H   UNL     1     -46.674  31.342  27.179  1.00  0.00     0.086 H 
BRANCH  34  38
ATOM     38  N   UNL     1     -47.939  32.185  24.904  1.00  0.00    -0.298 N 
ATOM     39  C   UNL     1     -49.298  31.950  24.778  1.00  0.00     0.031 A 
ATOM     40  C   UNL     1     -47.299  31.482  23.880  1.00  0.00     0.151 A 
ATOM     41  C   UNL     1     -49.514  31.141  23.688  1.00  0.00     0.072 A 
ATOM     42  H   UNL     1     -50.020  32.400  25.445  1.00  0.00     0.084 H 
ATOM     43  C   UNL     1     -48.261  30.827  23.116  1.00  0.00     0.080 A 
ATOM     44  N   UNL     1     -45.969  31.403  23.675  1.00  0.00    -0.218 NA
ATOM     45  Cl  UNL     1     -51.034  30.616  23.132  1.00  0.00    -0.082 Cl
ATOM     46  C   UNL     1     -47.800  30.055  22.039  1.00  0.00     0.137 A 
ATOM     47  C   UNL     1     -45.644  30.636  22.626  1.00  0.00     0.120 A 
ATOM     48  N   UNL     1     -46.479  29.980  21.804  1.00  0.00    -0.219 NA
ATOM     49  H   UNL     1     -44.583  30.532  22.415  1.00  0.00     0.106 H 
BRANCH  46  50
ATOM     50  N   UNL     1     -48.628  29.346  21.182  1.00  0.00    -0.383 N 
ATOM     51  H   UNL     1     -48.438  28.352  21.220  1.00  0.00     0.158 HD
ATOM     52  H   UNL     1     -48.777  29.756  20.270  1.00  0.00     0.158 HD
ENDBRANCH  46  50
ENDBRANCH  34  38
ENDBRANCH  26  29
ENDBRANCH   1  26
TORSDOF 8
ENDMDL
MODEL 2
REMARK VINA RESULT:      -9.8      3.454     10.628
REMARK SMILES CCNc1ccc2ccc(OCc3cncc(-n4cc(Cl)c5c(N)ncnc54)c3)cc2n1
REMARK SMILES IDX 11 1 10 2 4 3 5 4 32 5 6 6 31 8 7 9 30 11 8 12 9 14 3 17
REMARK SMILES IDX 2 19 1 22 12 26 13 29 14 30 29 31 15 32 17 34 16 36 18 38
REMARK SMILES IDX 19 39 28 40 20 41 22 43 27 44 21 45 23 46 26 47 25 48 24 50
REMARK H PARENT 5 7 6 10 30 13 8 15 9 16 3 18 2 20 2 21 1 23 1 24 1 25 12 27
REMARK H PARENT 12 28 14 33 29 35 16 37 19 42 26 49 24 51 24 52
REMARK Flexibility Score: inf
ROOT
ATOM      1  O   UNL     1     -48.864  35.267  27.321  1.00  0.00    -0.489 OA
ENDROOT
BRANCH   1   2
ATOM      2  C   UNL     1     -48.209  34.424  26.465  1.00  0.00     0.122 A 
ATOM      3  C   UNL     1     -48.442  30.076  24.530  1.00  0.00     0.126 A 
ATOM      4  C   UNL     1     -47.201  30.234  23.922  1.00  0.00    -0.019 A 
ATOM      5  N   UNL     1     -48.982  31.051  25.287  1.00  0.00    -0.231 NA
ATOM      6  C   UNL     1     -46.507  31.429  24.080  1.00  0.00    -0.049 A 
ATOM      7  H   UNL     1     -46.767  29.426  23.342  1.00  0.00     0.066 H 
ATOM      8  C   UNL     1     -48.317  32.212  25.444  1.00  0.00     0.076 A 
ATOM      9  C   UNL     1     -47.063  32.449  24.855  1.00  0.00     0.001 A 
ATOM     10  H   UNL     1     -45.535  31.550  23.609  1.00  0.00     0.063 H 
ATOM     11  C   UNL     1     -48.869  33.213  26.229  1.00  0.00     0.007 A 
ATOM     12  C   UNL     1     -46.403  33.672  25.060  1.00  0.00    -0.049 A 
ATOM     13  H   UNL     1     -49.833  33.032  26.700  1.00  0.00     0.069 H 
ATOM     14  C   UNL     1     -46.975  34.658  25.866  1.00  0.00    -0.019 A 
ATOM     15  H   UNL     1     -45.431  33.857  24.606  1.00  0.00     0.063 H 
ATOM     16  H   UNL     1     -46.424  35.580  26.013  1.00  0.00     0.066 H 
BRANCH   3  17
ATOM     17  N   UNL     1     -49.098  28.844  24.368  1.00  0.00    -0.370 N 
ATOM     18  H   UNL     1     -50.037  28.933  24.748  1.00  0.00     0.162 HD
BRANCH  17  19
ATOM     19  C   UNL     1     -48.414  27.673  24.911  1.00  0.00     0.013 C 
ATOM     20  H   UNL     1     -47.350  27.924  25.002  1.00  0.00     0.049 H 
ATOM     21  H   UNL     1     -48.465  26.810  24.236  1.00  0.00     0.049 H 
BRANCH  19  22
ATOM     22  C   UNL     1     -48.930  27.325  26.298  1.00  0.00    -0.048 C 
ATOM     23  H   UNL     1     -49.833  27.890  26.550  1.00  0.00     0.025 H 
ATOM     24  H   UNL     1     -48.177  27.541  27.063  1.00  0.00     0.025 H 
ATOM     25  H   UNL     1     -49.176  26.260  26.353  1.00  0.00     0.025 H 
ENDBRANCH  19  22
ENDBRANCH  17  19
ENDBRANCH   3  17
ENDBRANCH   1   2
BRANCH   1  26
ATOM     26  C   UNL     1     -48.497  36.650  27.348  1.00  0.00     0.115 C 
ATOM     27  H   UNL     1     -49.367  37.179  27.756  1.00  0.00     0.076 H 
ATOM     28  H   UNL     1     -48.358  37.031  26.330  1.00  0.00     0.076 H 
BRANCH  26  29
ATOM     29  C   UNL     1     -47.319  36.987  28.232  1.00  0.00     0.010 A 
ATOM     30  C   UNL     1     -47.072  36.222  29.365  1.00  0.00     0.034 A 
ATOM     31  C   UNL     1     -46.423  38.030  27.961  1.00  0.00    -0.028 A 
ATOM     32  N   UNL     1     -46.043  36.434  30.214  1.00  0.00    -0.262 NA
ATOM     33  H   UNL     1     -47.712  35.384  29.633  1.00  0.00     0.084 H 
ATOM     34  C   UNL     1     -45.364  38.307  28.830  1.00  0.00     0.066 A 
ATOM     35  H   UNL     1     -46.561  38.606  27.050  1.00  0.00     0.065 H 
ATOM     36  C   UNL     1     -45.218  37.471  29.932  1.00  0.00     0.051 A 
ATOM     37  H   UNL     1     -44.440  37.605  30.676  1.00  0.00     0.086 H 
BRANCH  34  38
ATOM     38  N   UNL     1     -44.476  39.403  28.613  1.00  0.00    -0.298 N 
ATOM     39  C   UNL     1     -43.394  39.721  29.416  1.00  0.00     0.031 A 
ATOM     40  C   UNL     1     -44.529  40.353  27.591  1.00  0.00     0.151 A 
ATOM     41  C   UNL     1     -42.762  40.828  28.901  1.00  0.00     0.072 A 
ATOM     42  H   UNL     1     -43.123  39.122  30.274  1.00  0.00     0.084 H 
ATOM     43  C   UNL     1     -43.473  41.247  27.754  1.00  0.00     0.080 A 
ATOM     44  N   UNL     1     -45.463  40.436  26.623  1.00  0.00    -0.218 NA
ATOM     45  Cl  UNL     1     -41.365  41.557  29.541  1.00  0.00    -0.082 Cl
ATOM     46  C   UNL     1     -43.370  42.287  26.818  1.00  0.00     0.137 A 
ATOM     47  C   UNL     1     -45.269  41.468  25.791  1.00  0.00     0.120 A 
ATOM     48  N   UNL     1     -44.279  42.375  25.832  1.00  0.00    -0.219 NA
ATOM     49  H   UNL     1     -45.996  41.587  24.992  1.00  0.00     0.106 H 
BRANCH  46  50
ATOM     50  N   UNL     1     -42.376  43.253  26.838  1.00  0.00    -0.383 N 
ATOM     51  H   UNL     1     -42.683  44.111  26.395  1.00  0.00     0.158 HD
ATOM     52  H   UNL     1     -41.441  42.932  26.629  1.00  0.00     0.158 HD
ENDBRANCH  46  50
ENDBRANCH  34  38
ENDBRANCH  26  29
ENDBRANCH   1  26
TORSDOF 8
ENDMDL
MODEL 3
REMARK VINA RESULT:      -9.3      3.127     11.039
REMARK SMILES CCNc1ccc2ccc(OCc3cncc(-n4cc(Cl)c5c(N)ncnc54)c3)cc2n1
REMARK SMILES IDX 11 1 10 2 4 3 5 4 32 5 6 6 31 8 7 9 30 11 8 12 9 14 3 17
REMARK SMILES IDX 2 19 1 22 12 26 13 29 14 30 29 31 15 32 17 34 16 36 18 38
REMARK SMILES IDX 19 39 28 40 20 41 22 43 27 44 21 45 23 46 26 47 25 48 24 50
REMARK H PARENT 5 7 6 10 30 13 8 15 9 16 3 18 2 20 2 21 1 23 1 24 1 25 12 27
REMARK H PARENT 12 28 14 33 29 35 16 37 19 42 26 49 24 51 24 52
REMARK Flexibility Score: inf
ROOT
ATOM      1  O   UNL     1     -47.568  33.917  27.253  1.00  0.00    -0.489 OA
ENDROOT
BRANCH   1   2
ATOM      2  C   UNL     1     -47.375  33.081  26.187  1.00  0.00     0.122 A 
ATOM      3  C   UNL     1     -48.708  28.870  24.399  1.00  0.00     0.126 A 
ATOM      4  C   UNL     1     -47.797  28.978  23.354  1.00  0.00    -0.019 A 
ATOM      5  N   UNL     1     -48.824  29.836  25.332  1.00  0.00    -0.231 NA
ATOM      6  C   UNL     1     -47.001  30.114  23.252  1.00  0.00    -0.049 A 
ATOM      7  H   UNL     1     -47.695  28.177  22.630  1.00  0.00     0.066 H 
ATOM      8  C   UNL     1     -48.058  30.939  25.240  1.00  0.00     0.076 A 
ATOM      9  C   UNL     1     -47.122  31.125  24.208  1.00  0.00     0.001 A 
ATOM     10  H   UNL     1     -46.286  30.196  22.438  1.00  0.00     0.063 H 
ATOM     11  C   UNL     1     -48.173  31.931  26.203  1.00  0.00     0.007 A 
ATOM     12  C   UNL     1     -46.335  32.288  24.164  1.00  0.00    -0.049 A 
ATOM     13  H   UNL     1     -48.884  31.789  27.013  1.00  0.00     0.069 H 
ATOM     14  C   UNL     1     -46.461  33.265  25.154  1.00  0.00    -0.019 A 
ATOM     15  H   UNL     1     -45.609  32.433  23.367  1.00  0.00     0.063 H 
ATOM     16  H   UNL     1     -45.823  34.139  25.094  1.00  0.00     0.066 H 
BRANCH   3  17
ATOM     17  N   UNL     1     -49.474  27.695  24.481  1.00  0.00    -0.370 N 
ATOM     18  H   UNL     1     -48.860  26.935  24.760  1.00  0.00     0.162 HD
BRANCH  17  19
ATOM     19  C   UNL     1     -50.247  27.345  23.290  1.00  0.00     0.013 C 
ATOM     20  H   UNL     1     -50.618  26.322  23.427  1.00  0.00     0.049 H 
ATOM     21  H   UNL     1     -49.630  27.326  22.384  1.00  0.00     0.049 H 
BRANCH  19  22
ATOM     22  C   UNL     1     -51.450  28.260  23.124  1.00  0.00    -0.048 C 
ATOM     23  H   UNL     1     -52.360  27.815  23.540  1.00  0.00     0.025 H 
ATOM     24  H   UNL     1     -51.637  28.474  22.067  1.00  0.00     0.025 H 
ATOM     25  H   UNL     1     -51.277  29.209  23.640  1.00  0.00     0.025 H 
ENDBRANCH  19  22
ENDBRANCH  17  19
ENDBRANCH   3  17
ENDBRANCH   1   2
BRANCH   1  26
ATOM     26  C   UNL     1     -47.817  35.305  27.009  1.00  0.00     0.115 C 
ATOM     27  H   UNL     1     -48.867  35.469  27.278  1.00  0.00     0.076 H 
ATOM     28  H   UNL     1     -47.739  35.527  25.938  1.00  0.00     0.076 H 
BRANCH  26  29
ATOM     29  C   UNL     1     -46.992  36.262  27.836  1.00  0.00     0.010 A 
ATOM     30  C   UNL     1     -46.824  36.024  29.195  1.00  0.00     0.034 A 
ATOM     31  C   UNL     1     -46.348  37.388  27.303  1.00  0.00    -0.028 A 
ATOM     32  N   UNL     1     -46.101  36.812  30.020  1.00  0.00    -0.262 NA
ATOM     33  H   UNL     1     -47.278  35.162  29.679  1.00  0.00     0.084 H 
ATOM     34  C   UNL     1     -45.618  38.249  28.126  1.00  0.00     0.066 A 
ATOM     35  H   UNL     1     -46.417  37.563  26.234  1.00  0.00     0.065 H 
ATOM     36  C   UNL     1     -45.520  37.906  29.470  1.00  0.00     0.051 A 
ATOM     37  H   UNL     1     -44.989  38.512  30.197  1.00  0.00     0.086 H 
BRANCH  34  38
ATOM     38  N   UNL     1     -45.008  39.437  27.622  1.00  0.00    -0.298 N 
ATOM     39  C   UNL     1     -45.349  40.065  26.435  1.00  0.00     0.031 A 
ATOM     40  C   UNL     1     -43.968  40.172  28.197  1.00  0.00     0.151 A 
ATOM     41  C   UNL     1     -44.563  41.181  26.276  1.00  0.00     0.072 A 
ATOM     42  H   UNL     1     -46.147  39.700  25.805  1.00  0.00     0.084 H 
ATOM     43  C   UNL     1     -43.678  41.258  27.375  1.00  0.00     0.080 A 
ATOM     44  N   UNL     1     -43.312  39.872  29.336  1.00  0.00    -0.218 NA
ATOM     45  Cl  UNL     1     -44.653  42.277  24.978  1.00  0.00    -0.082 Cl
ATOM     46  C   UNL     1     -42.644  42.111  27.789  1.00  0.00     0.137 A 
ATOM     47  C   UNL     1     -42.342  40.749  29.630  1.00  0.00     0.120 A 
ATOM     48  N   UNL     1     -41.990  41.842  28.933  1.00  0.00    -0.219 NA
ATOM     49  H   UNL     1     -41.775  40.555  30.536  1.00  0.00     0.106 H 
BRANCH  46  50
ATOM     50  N   UNL     1     -42.237  43.235  27.088  1.00  0.00    -0.383 N 
ATOM     51  H   UNL     1     -42.917  43.501  26.385  1.00  0.00     0.158 HD
ATOM     52  H   UNL     1     -41.261  43.266  26.825  1.00  0.00     0.158 HD
ENDBRANCH  46  50
ENDBRANCH  34  38
ENDBRANCH  26  29
ENDBRANCH   1  26
TORSDOF 8
ENDMDL
MODEL 4
REMARK VINA RESULT:      -9.2      1.496      2.004
REMARK SMILES CCNc1ccc2ccc(OCc3cncc(-n4cc(Cl)c5c(N)ncnc54)c3)cc2n1
REMARK SMILES IDX 11 1 10 2 4 3 5 4 32 5 6 6 31 8 7 9 30 11 8 12 9 14 3 17
REMARK SMILES IDX 2 19 1 22 12 26 13 29 14 30 29 31 15 32 17 34 16 36 18 38
REMARK SMILES IDX 19 39 28 40 20 41 22 43 27 44 21 45 23 46 26 47 25 48 24 50
REMARK H PARENT 5 7 6 10 30 13 8 15 9 16 3 18 2 20 2 21 1 23 1 24 1 25 12 27
REMARK H PARENT 12 28 14 33 29 35 16 37 19 42 26 49 24 51 24 52
REMARK Flexibility Score: inf
ROOT
ATOM      1  O   UNL     1     -46.646  37.757  26.510  1.00  0.00    -0.489 OA
ENDROOT
BRANCH   1   2
ATOM      2  C   UNL     1     -45.754  38.442  27.292  1.00  0.00     0.122 A 
ATOM      3  C   UNL     1     -42.898  42.255  27.307  1.00  0.00     0.126 A 
ATOM      4  C   UNL     1     -42.375  41.911  28.549  1.00  0.00    -0.019 A 
ATOM      5  N   UNL     1     -43.839  41.500  26.708  1.00  0.00    -0.231 NA
ATOM      6  C   UNL     1     -42.846  40.776  29.200  1.00  0.00    -0.049 A 
ATOM      7  H   UNL     1     -41.595  42.513  29.002  1.00  0.00     0.066 H 
ATOM      8  C   UNL     1     -44.301  40.400  27.332  1.00  0.00     0.076 A 
ATOM      9  C   UNL     1     -43.829  39.993  28.592  1.00  0.00     0.001 A 
ATOM     10  H   UNL     1     -42.434  40.505  30.169  1.00  0.00     0.063 H 
ATOM     11  C   UNL     1     -45.266  39.619  26.713  1.00  0.00     0.007 A 
ATOM     12  C   UNL     1     -44.332  38.829  29.196  1.00  0.00    -0.049 A 
ATOM     13  H   UNL     1     -45.626  39.918  25.732  1.00  0.00     0.069 H 
ATOM     14  C   UNL     1     -45.293  38.053  28.545  1.00  0.00    -0.019 A 
ATOM     15  H   UNL     1     -43.967  38.511  30.171  1.00  0.00     0.063 H 
ATOM     16  H   UNL     1     -45.642  37.153  29.038  1.00  0.00     0.066 H 
BRANCH   3  17
ATOM     17  N   UNL     1     -42.377  43.394  26.670  1.00  0.00    -0.370 N 
ATOM     18  H   UNL     1     -43.133  44.062  26.547  1.00  0.00     0.162 HD
BRANCH  17  19
ATOM     19  C   UNL     1     -41.664  43.162  25.415  1.00  0.00     0.013 C 
ATOM     20  H   UNL     1     -41.588  42.077  25.274  1.00  0.00     0.049 H 
ATOM     21  H   UNL     1     -40.634  43.537  25.446  1.00  0.00     0.049 H 
BRANCH  19  22
ATOM     22  C   UNL     1     -42.429  43.733  24.231  1.00  0.00    -0.048 C 
ATOM     23  H   UNL     1     -42.687  42.959  23.502  1.00  0.00     0.025 H 
ATOM     24  H   UNL     1     -41.838  44.496  23.714  1.00  0.00     0.025 H 
ATOM     25  H   UNL     1     -43.360  44.196  24.572  1.00  0.00     0.025 H 
ENDBRANCH  19  22
ENDBRANCH  17  19
ENDBRANCH   3  17
ENDBRANCH   1   2
BRANCH   1  26
ATOM     26  C   UNL     1     -47.546  36.835  27.133  1.00  0.00     0.115 C 
ATOM     27  H   UNL     1     -48.481  36.905  26.563  1.00  0.00     0.076 H 
ATOM     28  H   UNL     1     -47.786  37.160  28.152  1.00  0.00     0.076 H 
BRANCH  26  29
ATOM     29  C   UNL     1     -47.113  35.388  27.098  1.00  0.00     0.010 A 
ATOM     30  C   UNL     1     -46.559  34.812  28.235  1.00  0.00     0.034 A 
ATOM     31  C   UNL     1     -47.260  34.564  25.974  1.00  0.00    -0.028 A 
ATOM     32  N   UNL     1     -46.148  33.528  28.311  1.00  0.00    -0.262 NA
ATOM     33  H   UNL     1     -46.428  35.382  29.152  1.00  0.00     0.084 H 
ATOM     34  C   UNL     1     -46.817  33.239  25.997  1.00  0.00     0.066 A 
ATOM     35  H   UNL     1     -47.742  34.975  25.092  1.00  0.00     0.065 H 
ATOM     36  C   UNL     1     -46.281  32.774  27.193  1.00  0.00     0.051 A 
ATOM     37  H   UNL     1     -45.895  31.767  27.315  1.00  0.00     0.086 H 
BRANCH  34  38
ATOM     38  N   UNL     1     -46.895  32.397  24.847  1.00  0.00    -0.298 N 
ATOM     39  C   UNL     1     -46.076  32.493  23.734  1.00  0.00     0.031 A 
ATOM     40  C   UNL     1     -47.792  31.352  24.614  1.00  0.00     0.151 A 
ATOM     41  C   UNL     1     -46.430  31.519  22.831  1.00  0.00     0.072 A 
ATOM     42  H   UNL     1     -45.278  33.219  23.673  1.00  0.00     0.084 H 
ATOM     43  C   UNL     1     -47.519  30.796  23.367  1.00  0.00     0.080 A 
ATOM     44  N   UNL     1     -48.792  30.960  25.429  1.00  0.00    -0.218 NA
ATOM     45  Cl  UNL     1     -45.676  31.239  21.332  1.00  0.00    -0.082 Cl
ATOM     46  C   UNL     1     -48.334  29.731  22.953  1.00  0.00     0.137 A 
ATOM     47  C   UNL     1     -49.507  29.942  24.931  1.00  0.00     0.120 A 
ATOM     48  N   UNL     1     -49.323  29.310  23.761  1.00  0.00    -0.219 NA
ATOM     49  H   UNL     1     -50.331  29.586  25.544  1.00  0.00     0.106 H 
BRANCH  46  50
ATOM     50  N   UNL     1     -48.190  29.067  21.745  1.00  0.00    -0.383 N 
ATOM     51  H   UNL     1     -48.157  29.715  20.967  1.00  0.00     0.158 HD
ATOM     52  H   UNL     1     -48.744  28.230  21.630  1.00  0.00     0.158 HD
ENDBRANCH  46  50
ENDBRANCH  34  38
ENDBRANCH  26  29
ENDBRANCH   1  26
TORSDOF 8
ENDMDL
MODEL 5
REMARK VINA RESULT:      -9.0      3.858     10.859
REMARK SMILES CCNc1ccc2ccc(OCc3cncc(-n4cc(Cl)c5c(N)ncnc54)c3)cc2n1
REMARK SMILES IDX 11 1 10 2 4 3 5 4 32 5 6 6 31 8 7 9 30 11 8 12 9 14 3 17
REMARK SMILES IDX 2 19 1 22 12 26 13 29 14 30 29 31 15 32 17 34 16 36 18 38
REMARK SMILES IDX 19 39 28 40 20 41 22 43 27 44 21 45 23 46 26 47 25 48 24 50
REMARK H PARENT 5 7 6 10 30 13 8 15 9 16 3 18 2 20 2 21 1 23 1 24 1 25 12 27
REMARK H PARENT 12 28 14 33 29 35 16 37 19 42 26 49 24 51 24 52
REMARK Flexibility Score: inf
ROOT
ATOM      1  O   UNL     1     -48.096  34.357  27.295  1.00  0.00    -0.489 OA
ENDROOT
BRANCH   1   2
ATOM      2  C   UNL     1     -47.687  33.517  26.295  1.00  0.00     0.122 A 
ATOM      3  C   UNL     1     -48.493  29.216  24.411  1.00  0.00     0.126 A 
ATOM      4  C   UNL     1     -47.428  29.356  23.528  1.00  0.00    -0.019 A 
ATOM      5  N   UNL     1     -48.810  30.187  25.289  1.00  0.00    -0.231 NA
ATOM      6  C   UNL     1     -46.684  30.531  23.533  1.00  0.00    -0.049 A 
ATOM      7  H   UNL     1     -47.167  28.550  22.850  1.00  0.00     0.066 H 
ATOM      8  C   UNL     1     -48.095  31.328  25.299  1.00  0.00     0.076 A 
ATOM      9  C   UNL     1     -47.012  31.548  24.432  1.00  0.00     0.001 A 
ATOM     10  H   UNL     1     -45.849  30.639  22.846  1.00  0.00     0.063 H 
ATOM     11  C   UNL     1     -48.418  32.326  26.206  1.00  0.00     0.007 A 
ATOM     12  C   UNL     1     -46.288  32.751  24.491  1.00  0.00    -0.049 A 
ATOM     13  H   UNL     1     -49.246  32.159  26.891  1.00  0.00     0.069 H 
ATOM     14  C   UNL     1     -46.624  33.734  25.424  1.00  0.00    -0.019 A 
ATOM     15  H   UNL     1     -45.447  32.922  23.821  1.00  0.00     0.063 H 
ATOM     16  H   UNL     1     -46.029  34.639  25.448  1.00  0.00     0.066 H 
BRANCH   3  17
ATOM     17  N   UNL     1     -49.203  28.003  24.393  1.00  0.00    -0.370 N 
ATOM     18  H   UNL     1     -50.124  28.169  24.788  1.00  0.00     0.162 HD
BRANCH  17  19
ATOM     19  C   UNL     1     -48.548  26.863  25.031  1.00  0.00     0.013 C 
ATOM     20  H   UNL     1     -47.465  27.003  24.928  1.00  0.00     0.049 H 
ATOM     21  H   UNL     1     -48.780  25.915  24.532  1.00  0.00     0.049 H 
BRANCH  19  22
ATOM     22  C   UNL     1     -48.870  26.802  26.517  1.00  0.00    -0.048 C 
ATOM     23  H   UNL     1     -48.995  25.772  26.864  1.00  0.00     0.025 H 
ATOM     24  H   UNL     1     -49.795  27.343  26.740  1.00  0.00     0.025 H 
ATOM     25  H   UNL     1     -48.061  27.255  27.097  1.00  0.00     0.025 H 
ENDBRANCH  19  22
ENDBRANCH  17  19
ENDBRANCH   3  17
ENDBRANCH   1   2
BRANCH   1  26
ATOM     26  C   UNL     1     -48.306  35.740  26.995  1.00  0.00     0.115 C 
ATOM     27  H   UNL     1     -49.200  36.033  27.558  1.00  0.00     0.076 H 
ATOM     28  H   UNL     1     -48.556  35.870  25.935  1.00  0.00     0.076 H 
BRANCH  26  29
ATOM     29  C   UNL     1     -47.192  36.668  27.419  1.00  0.00     0.010 A 
ATOM     30  C   UNL     1     -46.325  36.278  28.432  1.00  0.00     0.034 A 
ATOM     31  C   UNL     1     -46.955  37.915  26.825  1.00  0.00    -0.028 A 
ATOM     32  N   UNL     1     -45.294  37.028  28.880  1.00  0.00    -0.262 NA
ATOM     33  H   UNL     1     -46.432  35.317  28.931  1.00  0.00     0.084 H 
ATOM     34  C   UNL     1     -45.921  38.738  27.279  1.00  0.00     0.066 A 
ATOM     35  H   UNL     1     -47.583  38.218  25.992  1.00  0.00     0.065 H 
ATOM     36  C   UNL     1     -45.119  38.239  28.298  1.00  0.00     0.051 A 
ATOM     37  H   UNL     1     -44.299  38.801  28.733  1.00  0.00     0.086 H 
BRANCH  34  38
ATOM     38  N   UNL     1     -45.699  40.040  26.736  1.00  0.00    -0.298 N 
ATOM     39  C   UNL     1     -44.470  40.536  26.335  1.00  0.00     0.031 A 
ATOM     40  C   UNL     1     -46.644  41.047  26.521  1.00  0.00     0.151 A 
ATOM     41  C   UNL     1     -44.635  41.813  25.856  1.00  0.00     0.072 A 
ATOM     42  H   UNL     1     -43.570  39.939  26.382  1.00  0.00     0.084 H 
ATOM     43  C   UNL     1     -46.001  42.156  25.977  1.00  0.00     0.080 A 
ATOM     44  N   UNL     1     -47.956  40.990  26.825  1.00  0.00    -0.218 NA
ATOM     45  Cl  UNL     1     -43.402  42.801  25.226  1.00  0.00    -0.082 Cl
ATOM     46  C   UNL     1     -46.795  43.279  25.701  1.00  0.00     0.137 A 
ATOM     47  C   UNL     1     -48.614  42.119  26.526  1.00  0.00     0.120 A 
ATOM     48  N   UNL     1     -48.111  43.236  25.977  1.00  0.00    -0.219 NA
ATOM     49  H   UNL     1     -49.676  42.132  26.753  1.00  0.00     0.106 H 
BRANCH  46  50
ATOM     50  N   UNL     1     -46.311  44.457  25.155  1.00  0.00    -0.383 N 
ATOM     51  H   UNL     1     -45.955  44.313  24.217  1.00  0.00     0.158 HD
ATOM     52  H   UNL     1     -45.766  45.043  25.773  1.00  0.00     0.158 HD
ENDBRANCH  46  50
ENDBRANCH  34  38
ENDBRANCH  26  29
ENDBRANCH   1  26
TORSDOF 8
ENDMDL
MODEL 6
REMARK VINA RESULT:      -8.9      3.048     10.370
REMARK SMILES CCNc1ccc2ccc(OCc3cncc(-n4cc(Cl)c5c(N)ncnc54)c3)cc2n1
REMARK SMILES IDX 11 1 10 2 4 3 5 4 32 5 6 6 31 8 7 9 30 11 8 12 9 14 3 17
REMARK SMILES IDX 2 19 1 22 12 26 13 29 14 30 29 31 15 32 17 34 16 36 18 38
REMARK SMILES IDX 19 39 28 40 20 41 22 43 27 44 21 45 23 46 26 47 25 48 24 50
REMARK H PARENT 5 7 6 10 30 13 8 15 9 16 3 18 2 20 2 21 1 23 1 24 1 25 12 27
REMARK H PARENT 12 28 14 33 29 35 16 37 19 42 26 49 24 51 24 52
REMARK Flexibility Score: inf
ROOT
ATOM      1  O   UNL     1     -46.052  34.495  26.984  1.00  0.00    -0.489 OA
ENDROOT
BRANCH   1   2
ATOM      2  C   UNL     1     -46.956  33.693  26.341  1.00  0.00     0.122 A 
ATOM      3  C   UNL     1     -47.468  30.883  22.527  1.00  0.00     0.126 A 
ATOM      4  C   UNL     1     -48.819  30.692  22.797  1.00  0.00    -0.019 A 
ATOM      5  N   UNL     1     -46.696  31.653  23.319  1.00  0.00    -0.231 NA
ATOM      6  C   UNL     1     -49.385  31.288  23.919  1.00  0.00    -0.049 A 
ATOM      7  H   UNL     1     -49.432  30.095  22.130  1.00  0.00     0.066 H 
ATOM      8  C   UNL     1     -47.236  32.232  24.408  1.00  0.00     0.076 A 
ATOM      9  C   UNL     1     -48.590  32.078  24.752  1.00  0.00     0.001 A 
ATOM     10  H   UNL     1     -50.442  31.141  24.127  1.00  0.00     0.063 H 
ATOM     11  C   UNL     1     -46.443  33.029  25.220  1.00  0.00     0.007 A 
ATOM     12  C   UNL     1     -49.110  32.715  25.890  1.00  0.00    -0.049 A 
ATOM     13  H   UNL     1     -45.398  33.166  24.954  1.00  0.00     0.069 H 
ATOM     14  C   UNL     1     -48.293  33.524  26.683  1.00  0.00    -0.019 A 
ATOM     15  H   UNL     1     -50.159  32.599  26.157  1.00  0.00     0.063 H 
ATOM     16  H   UNL     1     -48.738  34.012  27.543  1.00  0.00     0.066 H 
BRANCH   3  17
ATOM     17  N   UNL     1     -46.940  30.286  21.369  1.00  0.00    -0.370 N 
ATOM     18  H   UNL     1     -45.930  30.239  21.469  1.00  0.00     0.162 HD
BRANCH  17  19
ATOM     19  C   UNL     1     -47.321  30.898  20.097  1.00  0.00     0.013 C 
ATOM     20  H   UNL     1     -48.298  31.374  20.239  1.00  0.00     0.049 H 
ATOM     21  H   UNL     1     -47.456  30.156  19.302  1.00  0.00     0.049 H 
BRANCH  19  22
ATOM     22  C   UNL     1     -46.332  31.979  19.687  1.00  0.00    -0.048 C 
ATOM     23  H   UNL     1     -46.614  32.959  20.083  1.00  0.00     0.025 H 
ATOM     24  H   UNL     1     -46.274  32.063  18.597  1.00  0.00     0.025 H 
ATOM     25  H   UNL     1     -45.333  31.739  20.064  1.00  0.00     0.025 H 
ENDBRANCH  19  22
ENDBRANCH  17  19
ENDBRANCH   3  17
ENDBRANCH   1   2
BRANCH   1  26
ATOM     26  C   UNL     1     -46.439  35.135  28.204  1.00  0.00     0.115 C 
ATOM     27  H   UNL     1     -45.568  35.062  28.866  1.00  0.00     0.076 H 
ATOM     28  H   UNL     1     -47.243  34.573  28.695  1.00  0.00     0.076 H 
BRANCH  26  29
ATOM     29  C   UNL     1     -46.782  36.601  28.081  1.00  0.00     0.010 A 
ATOM     30  C   UNL     1     -48.066  37.032  28.389  1.00  0.00     0.034 A 
ATOM     31  C   UNL     1     -45.858  37.581  27.693  1.00  0.00    -0.028 A 
ATOM     32  N   UNL     1     -48.472  38.319  28.320  1.00  0.00    -0.262 NA
ATOM     33  H   UNL     1     -48.835  36.335  28.715  1.00  0.00     0.084 H 
ATOM     34  C   UNL     1     -46.243  38.919  27.576  1.00  0.00     0.066 A 
ATOM     35  H   UNL     1     -44.833  37.277  27.503  1.00  0.00     0.065 H 
ATOM     36  C   UNL     1     -47.555  39.230  27.912  1.00  0.00     0.051 A 
ATOM     37  H   UNL     1     -47.961  40.234  27.843  1.00  0.00     0.086 H 
BRANCH  34  38
ATOM     38  N   UNL     1     -45.340  39.926  27.119  1.00  0.00    -0.298 N 
ATOM     39  C   UNL     1     -45.441  40.598  25.912  1.00  0.00     0.031 A 
ATOM     40  C   UNL     1     -44.202  40.410  27.770  1.00  0.00     0.151 A 
ATOM     41  C   UNL     1     -44.410  41.501  25.812  1.00  0.00     0.072 A 
ATOM     42  H   UNL     1     -46.255  40.417  25.224  1.00  0.00     0.084 H 
ATOM     43  C   UNL     1     -43.611  41.387  26.973  1.00  0.00     0.080 A 
ATOM     44  N   UNL     1     -43.716  39.984  28.953  1.00  0.00    -0.218 NA
ATOM     45  Cl  UNL     1     -44.151  42.567  24.513  1.00  0.00    -0.082 Cl
ATOM     46  C   UNL     1     -42.440  41.985  27.463  1.00  0.00     0.137 A 
ATOM     47  C   UNL     1     -42.594  40.619  29.318  1.00  0.00     0.120 A 
ATOM     48  N   UNL     1     -41.950  41.590  28.651  1.00  0.00    -0.219 NA
ATOM     49  H   UNL     1     -42.153  40.313  30.263  1.00  0.00     0.106 H 
BRANCH  46  50
ATOM     50  N   UNL     1     -41.735  42.974  26.795  1.00  0.00    -0.383 N 
ATOM     51  H   UNL     1     -41.083  42.580  26.128  1.00  0.00     0.158 HD
ATOM     52  H   UNL     1     -41.412  43.747  27.360  1.00  0.00     0.158 HD
ENDBRANCH  46  50
ENDBRANCH  34  38
ENDBRANCH  26  29
ENDBRANCH   1  26
TORSDOF 8
ENDMDL
MODEL 7
REMARK VINA RESULT:      -8.9      3.555     10.444
REMARK SMILES CCNc1ccc2ccc(OCc3cncc(-n4cc(Cl)c5c(N)ncnc54)c3)cc2n1
REMARK SMILES IDX 11 1 10 2 4 3 5 4 32 5 6 6 31 8 7 9 30 11 8 12 9 14 3 17
REMARK SMILES IDX 2 19 1 22 12 26 13 29 14 30 29 31 15 32 17 34 16 36 18 38
REMARK SMILES IDX 19 39 28 40 20 41 22 43 27 44 21 45 23 46 26 47 25 48 24 50
REMARK H PARENT 5 7 6 10 30 13 8 15 9 16 3 18 2 20 2 21 1 23 1 24 1 25 12 27
REMARK H PARENT 12 28 14 33 29 35 16 37 19 42 26 49 24 51 24 52
REMARK Flexibility Score: inf
ROOT
ATOM      1  O   UNL     1     -44.934  37.033  28.240  1.00  0.00    -0.489 OA
ENDROOT
BRANCH   1   2
ATOM      2  C   UNL     1     -46.096  36.412  27.870  1.00  0.00     0.122 A 
ATOM      3  C   UNL     1     -47.808  32.299  26.182  1.00  0.00     0.126 A 
ATOM      4  C   UNL     1     -49.088  32.830  26.068  1.00  0.00    -0.019 A 
ATOM      5  N   UNL     1     -46.780  33.037  26.646  1.00  0.00    -0.231 NA
ATOM      6  C   UNL     1     -49.323  34.144  26.459  1.00  0.00    -0.049 A 
ATOM      7  H   UNL     1     -49.896  32.230  25.663  1.00  0.00     0.066 H 
ATOM      8  C   UNL     1     -46.999  34.310  27.027  1.00  0.00     0.076 A 
ATOM      9  C   UNL     1     -48.266  34.913  26.951  1.00  0.00     0.001 A 
ATOM     10  H   UNL     1     -50.322  34.559  26.365  1.00  0.00     0.063 H 
ATOM     11  C   UNL     1     -45.941  35.072  27.499  1.00  0.00     0.007 A 
ATOM     12  C   UNL     1     -48.441  36.249  27.347  1.00  0.00    -0.049 A 
ATOM     13  H   UNL     1     -44.954  34.617  27.548  1.00  0.00     0.069 H 
ATOM     14  C   UNL     1     -47.356  36.999  27.805  1.00  0.00    -0.019 A 
ATOM     15  H   UNL     1     -49.421  36.719  27.287  1.00  0.00     0.063 H 
ATOM     16  H   UNL     1     -47.530  38.032  28.085  1.00  0.00     0.066 H 
BRANCH   3  17
ATOM     17  N   UNL     1     -47.607  30.976  25.752  1.00  0.00    -0.370 N 
ATOM     18  H   UNL     1     -46.742  30.636  26.165  1.00  0.00     0.162 HD
BRANCH  17  19
ATOM     19  C   UNL     1     -47.626  30.758  24.307  1.00  0.00     0.013 C 
ATOM     20  H   UNL     1     -48.544  31.214  23.916  1.00  0.00     0.049 H 
ATOM     21  H   UNL     1     -47.680  29.695  24.046  1.00  0.00     0.049 H 
BRANCH  19  22
ATOM     22  C   UNL     1     -46.445  31.437  23.630  1.00  0.00    -0.048 C 
ATOM     23  H   UNL     1     -45.711  31.796  24.357  1.00  0.00     0.025 H 
ATOM     24  H   UNL     1     -46.774  32.296  23.036  1.00  0.00     0.025 H 
ATOM     25  H   UNL     1     -45.939  30.735  22.961  1.00  0.00     0.025 H 
ENDBRANCH  19  22
ENDBRANCH  17  19
ENDBRANCH   3  17
ENDBRANCH   1   2
BRANCH   1  26
ATOM     26  C   UNL     1     -44.974  38.016  29.280  1.00  0.00     0.115 C 
ATOM     27  H   UNL     1     -44.554  37.526  30.167  1.00  0.00     0.076 H 
ATOM     28  H   UNL     1     -46.011  38.266  29.532  1.00  0.00     0.076 H 
BRANCH  26  29
ATOM     29  C   UNL     1     -44.150  39.256  29.026  1.00  0.00     0.010 A 
ATOM     30  C   UNL     1     -43.184  39.638  29.949  1.00  0.00     0.034 A 
ATOM     31  C   UNL     1     -44.283  40.051  27.879  1.00  0.00    -0.028 A 
ATOM     32  N   UNL     1     -42.390  40.722  29.812  1.00  0.00    -0.262 NA
ATOM     33  H   UNL     1     -43.009  39.062  30.855  1.00  0.00     0.084 H 
ATOM     34  C   UNL     1     -43.507  41.201  27.713  1.00  0.00     0.066 A 
ATOM     35  H   UNL     1     -44.991  39.742  27.116  1.00  0.00     0.065 H 
ATOM     36  C   UNL     1     -42.572  41.480  28.703  1.00  0.00     0.051 A 
ATOM     37  H   UNL     1     -41.929  42.353  28.679  1.00  0.00     0.086 H 
BRANCH  34  38
ATOM     38  N   UNL     1     -43.668  42.064  26.587  1.00  0.00    -0.298 N 
ATOM     39  C   UNL     1     -42.658  42.425  25.710  1.00  0.00     0.031 A 
ATOM     40  C   UNL     1     -44.834  42.709  26.166  1.00  0.00     0.151 A 
ATOM     41  C   UNL     1     -43.177  43.255  24.745  1.00  0.00     0.072 A 
ATOM     42  H   UNL     1     -41.653  42.040  25.807  1.00  0.00     0.084 H 
ATOM     43  C   UNL     1     -44.547  43.454  25.025  1.00  0.00     0.080 A 
ATOM     44  N   UNL     1     -46.036  42.665  26.775  1.00  0.00    -0.218 NA
ATOM     45  Cl  UNL     1     -42.308  43.921  23.442  1.00  0.00    -0.082 Cl
ATOM     46  C   UNL     1     -45.604  44.185  24.461  1.00  0.00     0.137 A 
ATOM     47  C   UNL     1     -46.966  43.403  26.155  1.00  0.00     0.120 A 
ATOM     48  N   UNL     1     -46.817  44.138  25.040  1.00  0.00    -0.219 NA
ATOM     49  H   UNL     1     -47.955  43.410  26.604  1.00  0.00     0.106 H 
BRANCH  46  50
ATOM     50  N   UNL     1     -45.486  44.970  23.325  1.00  0.00    -0.383 N 
ATOM     51  H   UNL     1     -44.518  45.201  23.133  1.00  0.00     0.158 HD
ATOM     52  H   UNL     1     -46.169  45.708  23.222  1.00  0.00     0.158 HD
ENDBRANCH  46  50
ENDBRANCH  34  38
ENDBRANCH  26  29
ENDBRANCH   1  26
TORSDOF 8
ENDMDL
