MODEL 1
REMARK VINA RESULT:     -10.2      0.000      0.000
REMARK SMILES CCc1cc(NC)c2ccc(CCc3cncc(-n4cc(-c5ccn(C)n5)c5c(N)ncnc54)c3)cc2n1
REMARK SMILES IDX 13 1 12 4 11 7 3 8 4 9 38 10 5 11 37 13 8 14 36 15 9 16
REMARK SMILES IDX 10 18 2 21 1 24 6 28 7 30 14 34 15 35 35 36 16 37 18 39
REMARK SMILES IDX 17 41 19 43 20 44 34 45 21 46 28 48 33 49 29 50 32 51 31 52
REMARK SMILES IDX 22 54 23 55 27 56 24 57 25 59 26 61 30 65
REMARK H PARENT 13 2 13 3 12 5 12 6 4 12 36 17 9 19 10 20 2 22 2 23 1 25 1 26
REMARK H PARENT 1 27 6 29 7 31 7 32 7 33 15 38 35 40 17 42 20 47 32 53 23 58
REMARK H PARENT 24 60 26 62 26 63 26 64 30 66 30 67
REMARK Flexibility Score: inf
ROOT
ATOM      1  C   UNL     1     -46.061  35.008  26.847  1.00  0.00    -0.022 C 
ATOM      2  H   UNL     1     -45.726  35.567  25.963  1.00  0.00     0.032 H 
ATOM      3  H   UNL     1     -45.296  34.242  27.021  1.00  0.00     0.032 H 
ENDROOT
BRANCH   1   4
ATOM      4  C   UNL     1     -46.148  35.978  28.037  1.00  0.00    -0.024 C 
ATOM      5  H   UNL     1     -47.142  35.890  28.493  1.00  0.00     0.032 H 
ATOM      6  H   UNL     1     -45.434  35.694  28.820  1.00  0.00     0.032 H 
BRANCH   4   7
ATOM      7  C   UNL     1     -45.935  37.423  27.649  1.00  0.00    -0.045 A 
ATOM      8  C   UNL     1     -43.294  41.357  28.072  1.00  0.00     0.043 A 
ATOM      9  C   UNL     1     -44.044  42.062  27.140  1.00  0.00    -0.017 A 
ATOM     10  N   UNL     1     -43.565  40.079  28.403  1.00  0.00    -0.253 NA
ATOM     11  C   UNL     1     -45.094  41.428  26.468  1.00  0.00     0.045 A 
ATOM     12  H   UNL     1     -43.783  43.094  26.938  1.00  0.00     0.066 H 
ATOM     13  C   UNL     1     -44.608  39.472  27.825  1.00  0.00     0.073 A 
ATOM     14  C   UNL     1     -45.421  40.095  26.852  1.00  0.00     0.023 A 
ATOM     15  C   UNL     1     -44.883  38.165  28.205  1.00  0.00    -0.032 A 
ATOM     16  C   UNL     1     -46.506  39.356  26.319  1.00  0.00    -0.050 A 
ATOM     17  H   UNL     1     -44.234  37.704  28.949  1.00  0.00     0.065 H 
ATOM     18  C   UNL     1     -46.754  38.037  26.704  1.00  0.00    -0.058 A 
ATOM     19  H   UNL     1     -47.182  39.809  25.599  1.00  0.00     0.063 H 
ATOM     20  H   UNL     1     -47.589  37.499  26.261  1.00  0.00     0.063 H 
BRANCH   8  21
ATOM     21  C   UNL     1     -42.141  42.014  28.784  1.00  0.00    -0.013 C 
ATOM     22  H   UNL     1     -41.381  42.301  28.049  1.00  0.00     0.033 H 
ATOM     23  H   UNL     1     -42.478  42.943  29.261  1.00  0.00     0.033 H 
BRANCH  21  24
ATOM     24  C   UNL     1     -41.521  41.088  29.818  1.00  0.00    -0.060 C 
ATOM     25  H   UNL     1     -42.259  40.825  30.582  1.00  0.00     0.023 H 
ATOM     26  H   UNL     1     -40.671  41.566  30.317  1.00  0.00     0.023 H 
ATOM     27  H   UNL     1     -41.162  40.162  29.358  1.00  0.00     0.023 H 
ENDBRANCH  21  24
ENDBRANCH   8  21
BRANCH  11  28
ATOM     28  N   UNL     1     -45.886  42.107  25.520  1.00  0.00    -0.388 N 
ATOM     29  H   UNL     1     -45.331  42.411  24.724  1.00  0.00     0.160 HD
BRANCH  28  30
ATOM     30  C   UNL     1     -46.832  43.124  25.943  1.00  0.00     0.003 C 
ATOM     31  H   UNL     1     -46.484  43.569  26.881  1.00  0.00     0.045 H 
ATOM     32  H   UNL     1     -47.823  42.696  26.124  1.00  0.00     0.045 H 
ATOM     33  H   UNL     1     -46.905  43.934  25.209  1.00  0.00     0.045 H 
ENDBRANCH  28  30
ENDBRANCH  11  28
ENDBRANCH   4   7
ENDBRANCH   1   4
BRANCH   1  34
ATOM     34  C   UNL     1     -47.372  34.340  26.522  1.00  0.00    -0.027 A 
ATOM     35  C   UNL     1     -48.584  34.935  26.845  1.00  0.00     0.030 A 
ATOM     36  C   UNL     1     -47.416  33.075  25.921  1.00  0.00    -0.032 A 
ATOM     37  N   UNL     1     -49.786  34.368  26.614  1.00  0.00    -0.262 NA
ATOM     38  H   UNL     1     -48.628  35.913  27.318  1.00  0.00     0.084 H 
ATOM     39  C   UNL     1     -48.643  32.435  25.694  1.00  0.00     0.066 A 
ATOM     40  H   UNL     1     -46.473  32.613  25.646  1.00  0.00     0.065 H 
ATOM     41  C   UNL     1     -49.790  33.132  26.049  1.00  0.00     0.051 A 
ATOM     42  H   UNL     1     -50.791  32.730  25.938  1.00  0.00     0.086 H 
BRANCH  39  43
ATOM     43  N   UNL     1     -48.694  31.110  25.158  1.00  0.00    -0.299 N 
ATOM     44  C   UNL     1     -48.708  29.950  25.916  1.00  0.00     0.021 A 
ATOM     45  C   UNL     1     -48.751  30.727  23.818  1.00  0.00     0.150 A 
ATOM     46  C   UNL     1     -48.785  28.852  25.085  1.00  0.00     0.033 A 
ATOM     47  H   UNL     1     -48.691  29.985  26.995  1.00  0.00     0.083 H 
ATOM     48  C   UNL     1     -48.834  29.336  23.746  1.00  0.00     0.071 A 
ATOM     49  N   UNL     1     -48.710  31.557  22.756  1.00  0.00    -0.218 NA
ATOM     50  C   UNL     1     -48.934  28.779  22.457  1.00  0.00     0.137 A 
ATOM     51  C   UNL     1     -48.780  30.909  21.587  1.00  0.00     0.120 A 
ATOM     52  N   UNL     1     -48.886  29.590  21.383  1.00  0.00    -0.219 NA
ATOM     53  H   UNL     1     -48.750  31.527  20.695  1.00  0.00     0.106 H 
BRANCH  46  54
ATOM     54  C   UNL     1     -48.805  27.452  25.519  1.00  0.00     0.095 A 
ATOM     55  C   UNL     1     -49.968  26.648  25.571  1.00  0.00    -0.016 A 
ATOM     56  N   UNL     1     -47.727  26.785  25.951  1.00  0.00    -0.173 NA
ATOM     57  C   UNL     1     -49.540  25.429  26.043  1.00  0.00     0.025 A 
ATOM     58  H   UNL     1     -50.977  26.918  25.297  1.00  0.00     0.066 H 
ATOM     59  N   UNL     1     -48.200  25.561  26.249  1.00  0.00    -0.275 N 
ATOM     60  H   UNL     1     -50.067  24.507  26.243  1.00  0.00     0.084 H 
BRANCH  59  61
ATOM     61  C   UNL     1     -47.293  24.550  26.739  1.00  0.00     0.030 C 
ATOM     62  H   UNL     1     -46.411  24.537  26.093  1.00  0.00     0.048 H 
ATOM     63  H   UNL     1     -47.806  23.585  26.711  1.00  0.00     0.048 H 
ATOM     64  H   UNL     1     -47.002  24.789  27.765  1.00  0.00     0.048 H 
ENDBRANCH  59  61
ENDBRANCH  46  54
BRANCH  50  65
ATOM     65  N   UNL     1     -49.078  27.424  22.201  1.00  0.00    -0.383 N 
ATOM     66  H   UNL     1     -49.945  27.065  22.575  1.00  0.00     0.158 HD
ATOM     67  H   UNL     1     -48.853  27.180  21.233  1.00  0.00     0.158 HD
ENDBRANCH  50  65
ENDBRANCH  39  43
ENDBRANCH   1  34
TORSDOF 11
ENDMDL
MODEL 2
REMARK VINA RESULT:      -9.7      2.286     12.290
REMARK SMILES CCc1cc(NC)c2ccc(CCc3cncc(-n4cc(-c5ccn(C)n5)c5c(N)ncnc54)c3)cc2n1
REMARK SMILES IDX 13 1 12 4 11 7 3 8 4 9 38 10 5 11 37 13 8 14 36 15 9 16
REMARK SMILES IDX 10 18 2 21 1 24 6 28 7 30 14 34 15 35 35 36 16 37 18 39
REMARK SMILES IDX 17 41 19 43 20 44 34 45 21 46 28 48 33 49 29 50 32 51 31 52
REMARK SMILES IDX 22 54 23 55 27 56 24 57 25 59 26 61 30 65
REMARK H PARENT 13 2 13 3 12 5 12 6 4 12 36 17 9 19 10 20 2 22 2 23 1 25 1 26
REMARK H PARENT 1 27 6 29 7 31 7 32 7 33 15 38 35 40 17 42 20 47 32 53 23 58
REMARK H PARENT 24 60 26 62 26 63 26 64 30 66 30 67
REMARK Flexibility Score: inf
ROOT
ATOM      1  C   UNL     1     -47.994  35.737  28.250  1.00  0.00    -0.022 C 
ATOM      2  H   UNL     1     -48.957  36.124  28.607  1.00  0.00     0.032 H 
ATOM      3  H   UNL     1     -47.948  34.696  28.592  1.00  0.00     0.032 H 
ENDROOT
BRANCH   1   4
ATOM      4  C   UNL     1     -47.974  35.812  26.714  1.00  0.00    -0.024 C 
ATOM      5  H   UNL     1     -48.966  36.124  26.363  1.00  0.00     0.032 H 
ATOM      6  H   UNL     1     -47.279  36.589  26.374  1.00  0.00     0.032 H 
BRANCH   4   7
ATOM      7  C   UNL     1     -47.635  34.496  26.054  1.00  0.00    -0.045 A 
ATOM      8  C   UNL     1     -49.155  30.268  24.489  1.00  0.00     0.043 A 
ATOM      9  C   UNL     1     -47.919  29.926  23.959  1.00  0.00    -0.017 A 
ATOM     10  N   UNL     1     -49.379  31.446  25.105  1.00  0.00    -0.253 NA
ATOM     11  C   UNL     1     -46.862  30.841  24.007  1.00  0.00     0.045 A 
ATOM     12  H   UNL     1     -47.805  28.952  23.497  1.00  0.00     0.066 H 
ATOM     13  C   UNL     1     -48.365  32.311  25.225  1.00  0.00     0.073 A 
ATOM     14  C   UNL     1     -47.076  32.066  24.704  1.00  0.00     0.023 A 
ATOM     15  C   UNL     1     -48.614  33.505  25.889  1.00  0.00    -0.032 A 
ATOM     16  C   UNL     1     -46.078  33.052  24.904  1.00  0.00    -0.050 A 
ATOM     17  H   UNL     1     -49.621  33.675  26.272  1.00  0.00     0.065 H 
ATOM     18  C   UNL     1     -46.355  34.253  25.561  1.00  0.00    -0.058 A 
ATOM     19  H   UNL     1     -45.062  32.888  24.557  1.00  0.00     0.063 H 
ATOM     20  H   UNL     1     -45.565  34.990  25.683  1.00  0.00     0.063 H 
BRANCH   8  21
ATOM     21  C   UNL     1     -50.312  29.306  24.421  1.00  0.00    -0.013 C 
ATOM     22  H   UNL     1     -51.127  29.678  25.054  1.00  0.00     0.033 H 
ATOM     23  H   UNL     1     -50.707  29.269  23.398  1.00  0.00     0.033 H 
BRANCH  21  24
ATOM     24  C   UNL     1     -49.911  27.913  24.879  1.00  0.00    -0.060 C 
ATOM     25  H   UNL     1     -50.674  27.185  24.589  1.00  0.00     0.023 H 
ATOM     26  H   UNL     1     -49.797  27.873  25.968  1.00  0.00     0.023 H 
ATOM     27  H   UNL     1     -48.960  27.606  24.431  1.00  0.00     0.023 H 
ENDBRANCH  21  24
ENDBRANCH   8  21
BRANCH  11  28
ATOM     28  N   UNL     1     -45.589  30.533  23.488  1.00  0.00    -0.388 N 
ATOM     29  H   UNL     1     -44.945  31.311  23.600  1.00  0.00     0.160 HD
BRANCH  28  30
ATOM     30  C   UNL     1     -45.458  29.902  22.186  1.00  0.00     0.003 C 
ATOM     31  H   UNL     1     -46.375  29.347  21.963  1.00  0.00     0.045 H 
ATOM     32  H   UNL     1     -44.625  29.192  22.169  1.00  0.00     0.045 H 
ATOM     33  H   UNL     1     -45.330  30.646  21.392  1.00  0.00     0.045 H 
ENDBRANCH  28  30
ENDBRANCH  11  28
ENDBRANCH   4   7
ENDBRANCH   1   4
BRANCH   1  34
ATOM     34  C   UNL     1     -46.889  36.527  28.903  1.00  0.00    -0.027 A 
ATOM     35  C   UNL     1     -46.453  36.230  30.187  1.00  0.00     0.030 A 
ATOM     36  C   UNL     1     -46.292  37.617  28.255  1.00  0.00    -0.032 A 
ATOM     37  N   UNL     1     -45.496  36.925  30.835  1.00  0.00    -0.262 NA
ATOM     38  H   UNL     1     -46.873  35.403  30.752  1.00  0.00     0.084 H 
ATOM     39  C   UNL     1     -45.318  38.388  28.906  1.00  0.00     0.066 A 
ATOM     40  H   UNL     1     -46.614  37.842  27.243  1.00  0.00     0.065 H 
ATOM     41  C   UNL     1     -44.954  37.989  30.186  1.00  0.00     0.051 A 
ATOM     42  H   UNL     1     -44.227  38.518  30.791  1.00  0.00     0.086 H 
BRANCH  39  43
ATOM     43  N   UNL     1     -44.763  39.550  28.285  1.00  0.00    -0.299 N 
ATOM     44  C   UNL     1     -45.285  40.173  27.163  1.00  0.00     0.021 A 
ATOM     45  C   UNL     1     -43.637  40.275  28.672  1.00  0.00     0.150 A 
ATOM     46  C   UNL     1     -44.521  41.276  26.846  1.00  0.00     0.033 A 
ATOM     47  H   UNL     1     -46.180  39.806  26.683  1.00  0.00     0.083 H 
ATOM     48  C   UNL     1     -43.479  41.363  27.812  1.00  0.00     0.071 A 
ATOM     49  N   UNL     1     -42.812  39.971  29.695  1.00  0.00    -0.218 NA
ATOM     50  C   UNL     1     -42.400  42.226  28.084  1.00  0.00     0.137 A 
ATOM     51  C   UNL     1     -41.809  40.845  29.832  1.00  0.00     0.120 A 
ATOM     52  N   UNL     1     -41.561  41.934  29.095  1.00  0.00    -0.219 NA
ATOM     53  H   UNL     1     -41.110  40.648  30.640  1.00  0.00     0.106 H 
BRANCH  46  54
ATOM     54  C   UNL     1     -44.751  42.178  25.712  1.00  0.00     0.095 A 
ATOM     55  C   UNL     1     -43.975  42.188  24.529  1.00  0.00    -0.016 A 
ATOM     56  N   UNL     1     -45.702  43.121  25.684  1.00  0.00    -0.173 NA
ATOM     57  C   UNL     1     -44.519  43.184  23.752  1.00  0.00     0.025 A 
ATOM     58  H   UNL     1     -43.139  41.553  24.275  1.00  0.00     0.066 H 
ATOM     59  N   UNL     1     -45.545  43.704  24.482  1.00  0.00    -0.275 N 
ATOM     60  H   UNL     1     -44.265  43.553  22.769  1.00  0.00     0.084 H 
BRANCH  59  61
ATOM     61  C   UNL     1     -46.430  44.777  24.094  1.00  0.00     0.030 C 
ATOM     62  H   UNL     1     -47.320  44.735  24.727  1.00  0.00     0.048 H 
ATOM     63  H   UNL     1     -46.697  44.639  23.043  1.00  0.00     0.048 H 
ATOM     64  H   UNL     1     -45.921  45.735  24.227  1.00  0.00     0.048 H 
ENDBRANCH  59  61
ENDBRANCH  46  54
BRANCH  50  65
ATOM     65  N   UNL     1     -42.126  43.382  27.368  1.00  0.00    -0.383 N 
ATOM     66  H   UNL     1     -41.319  43.864  27.736  1.00  0.00     0.158 HD
ATOM     67  H   UNL     1     -42.157  43.234  26.356  1.00  0.00     0.158 HD
ENDBRANCH  50  65
ENDBRANCH  39  43
ENDBRANCH   1  34
TORSDOF 11
ENDMDL
MODEL 3
REMARK VINA RESULT:      -9.6      2.428     12.643
REMARK SMILES CCc1cc(NC)c2ccc(CCc3cncc(-n4cc(-c5ccn(C)n5)c5c(N)ncnc54)c3)cc2n1
REMARK SMILES IDX 13 1 12 4 11 7 3 8 4 9 38 10 5 11 37 13 8 14 36 15 9 16
REMARK SMILES IDX 10 18 2 21 1 24 6 28 7 30 14 34 15 35 35 36 16 37 18 39
REMARK SMILES IDX 17 41 19 43 20 44 34 45 21 46 28 48 33 49 29 50 32 51 31 52
REMARK SMILES IDX 22 54 23 55 27 56 24 57 25 59 26 61 30 65
REMARK H PARENT 13 2 13 3 12 5 12 6 4 12 36 17 9 19 10 20 2 22 2 23 1 25 1 26
REMARK H PARENT 1 27 6 29 7 31 7 32 7 33 15 38 35 40 17 42 20 47 32 53 23 58
REMARK H PARENT 24 60 26 62 26 63 26 64 30 66 30 67
REMARK Flexibility Score: inf
ROOT
ATOM      1  C   UNL     1     -47.158  36.389  27.804  1.00  0.00    -0.022 C 
ATOM      2  H   UNL     1     -46.991  36.092  28.848  1.00  0.00     0.032 H 
ATOM      3  H   UNL     1     -46.225  36.156  27.277  1.00  0.00     0.032 H 
ENDROOT
BRANCH   1   4
ATOM      4  C   UNL     1     -48.327  35.565  27.241  1.00  0.00    -0.024 C 
ATOM      5  H   UNL     1     -48.935  35.197  28.077  1.00  0.00     0.032 H 
ATOM      6  H   UNL     1     -48.994  36.199  26.643  1.00  0.00     0.032 H 
BRANCH   4   7
ATOM      7  C   UNL     1     -47.883  34.374  26.423  1.00  0.00    -0.045 A 
ATOM      8  C   UNL     1     -48.991  30.155  24.527  1.00  0.00     0.043 A 
ATOM      9  C   UNL     1     -47.769  30.030  23.879  1.00  0.00    -0.017 A 
ATOM     10  N   UNL     1     -49.308  31.228  25.278  1.00  0.00    -0.253 NA
ATOM     11  C   UNL     1     -46.834  31.067  23.952  1.00  0.00     0.045 A 
ATOM     12  H   UNL     1     -47.574  29.129  23.310  1.00  0.00     0.066 H 
ATOM     13  C   UNL     1     -48.403  32.203  25.419  1.00  0.00     0.073 A 
ATOM     14  C   UNL     1     -47.139  32.181  24.787  1.00  0.00     0.023 A 
ATOM     15  C   UNL     1     -48.742  33.284  26.221  1.00  0.00    -0.032 A 
ATOM     16  C   UNL     1     -46.258  33.265  25.023  1.00  0.00    -0.050 A 
ATOM     17  H   UNL     1     -49.727  33.283  26.688  1.00  0.00     0.065 H 
ATOM     18  C   UNL     1     -46.627  34.350  25.820  1.00  0.00    -0.058 A 
ATOM     19  H   UNL     1     -45.261  33.271  24.591  1.00  0.00     0.063 H 
ATOM     20  H   UNL     1     -45.927  35.170  25.965  1.00  0.00     0.063 H 
BRANCH   8  21
ATOM     21  C   UNL     1     -50.022  29.061  24.436  1.00  0.00    -0.013 C 
ATOM     22  H   UNL     1     -49.987  28.456  25.350  1.00  0.00     0.033 H 
ATOM     23  H   UNL     1     -51.028  29.497  24.391  1.00  0.00     0.033 H 
BRANCH  21  24
ATOM     24  C   UNL     1     -49.785  28.166  23.229  1.00  0.00    -0.060 C 
ATOM     25  H   UNL     1     -50.519  27.354  23.210  1.00  0.00     0.023 H 
ATOM     26  H   UNL     1     -48.785  27.721  23.257  1.00  0.00     0.023 H 
ATOM     27  H   UNL     1     -49.876  28.729  22.294  1.00  0.00     0.023 H 
ENDBRANCH  21  24
ENDBRANCH   8  21
BRANCH  11  28
ATOM     28  N   UNL     1     -45.579  30.981  23.317  1.00  0.00    -0.388 N 
ATOM     29  H   UNL     1     -45.160  31.899  23.197  1.00  0.00     0.160 HD
BRANCH  28  30
ATOM     30  C   UNL     1     -45.405  30.146  22.141  1.00  0.00     0.003 C 
ATOM     31  H   UNL     1     -45.732  30.702  21.256  1.00  0.00     0.045 H 
ATOM     32  H   UNL     1     -46.009  29.236  22.205  1.00  0.00     0.045 H 
ATOM     33  H   UNL     1     -44.353  29.885  21.987  1.00  0.00     0.045 H 
ENDBRANCH  28  30
ENDBRANCH  11  28
ENDBRANCH   4   7
ENDBRANCH   1   4
BRANCH   1  34
ATOM     34  C   UNL     1     -47.398  37.877  27.761  1.00  0.00    -0.027 A 
ATOM     35  C   UNL     1     -48.624  38.419  28.122  1.00  0.00     0.030 A 
ATOM     36  C   UNL     1     -46.408  38.762  27.316  1.00  0.00    -0.032 A 
ATOM     37  N   UNL     1     -48.908  39.736  28.068  1.00  0.00    -0.262 NA
ATOM     38  H   UNL     1     -49.441  37.794  28.472  1.00  0.00     0.084 H 
ATOM     39  C   UNL     1     -46.673  40.135  27.211  1.00  0.00     0.066 A 
ATOM     40  H   UNL     1     -45.440  38.347  27.052  1.00  0.00     0.065 H 
ATOM     41  C   UNL     1     -47.932  40.563  27.611  1.00  0.00     0.051 A 
ATOM     42  H   UNL     1     -48.255  41.597  27.557  1.00  0.00     0.086 H 
BRANCH  39  43
ATOM     43  N   UNL     1     -45.697  41.035  26.679  1.00  0.00    -0.299 N 
ATOM     44  C   UNL     1     -45.887  41.839  25.567  1.00  0.00     0.021 A 
ATOM     45  C   UNL     1     -44.411  41.288  27.156  1.00  0.00     0.150 A 
ATOM     46  C   UNL     1     -44.757  42.598  25.345  1.00  0.00     0.033 A 
ATOM     47  H   UNL     1     -46.821  41.838  25.027  1.00  0.00     0.083 H 
ATOM     48  C   UNL     1     -43.817  42.271  26.363  1.00  0.00     0.071 A 
ATOM     49  N   UNL     1     -43.819  40.673  28.201  1.00  0.00    -0.218 NA
ATOM     50  C   UNL     1     -42.519  42.673  26.731  1.00  0.00     0.137 A 
ATOM     51  C   UNL     1     -42.579  41.117  28.431  1.00  0.00     0.120 A 
ATOM     52  N   UNL     1     -41.908  42.065  27.765  1.00  0.00    -0.219 NA
ATOM     53  H   UNL     1     -42.051  40.655  29.260  1.00  0.00     0.106 H 
BRANCH  46  54
ATOM     54  C   UNL     1     -44.573  43.557  24.250  1.00  0.00     0.095 A 
ATOM     55  C   UNL     1     -45.555  44.483  23.826  1.00  0.00    -0.016 A 
ATOM     56  N   UNL     1     -43.465  43.637  23.501  1.00  0.00    -0.173 NA
ATOM     57  C   UNL     1     -44.977  45.163  22.778  1.00  0.00     0.025 A 
ATOM     58  H   UNL     1     -46.543  44.639  24.232  1.00  0.00     0.066 H 
ATOM     59  N   UNL     1     -43.734  44.626  22.628  1.00  0.00    -0.275 N 
ATOM     60  H   UNL     1     -45.341  45.961  22.147  1.00  0.00     0.084 H 
BRANCH  59  61
ATOM     61  C   UNL     1     -42.736  45.006  21.658  1.00  0.00     0.030 C 
ATOM     62  H   UNL     1     -43.074  45.916  21.155  1.00  0.00     0.048 H 
ATOM     63  H   UNL     1     -42.623  44.189  20.941  1.00  0.00     0.048 H 
ATOM     64  H   UNL     1     -41.786  45.190  22.166  1.00  0.00     0.048 H 
ENDBRANCH  59  61
ENDBRANCH  46  54
BRANCH  50  65
ATOM     65  N   UNL     1     -41.801  43.671  26.090  1.00  0.00    -0.383 N 
ATOM     66  H   UNL     1     -42.376  44.179  25.433  1.00  0.00     0.158 HD
ATOM     67  H   UNL     1     -41.235  44.226  26.737  1.00  0.00     0.158 HD
ENDBRANCH  50  65
ENDBRANCH  39  43
ENDBRANCH   1  34
TORSDOF 11
ENDMDL
MODEL 4
REMARK VINA RESULT:      -9.5      2.566     12.227
REMARK SMILES CCc1cc(NC)c2ccc(CCc3cncc(-n4cc(-c5ccn(C)n5)c5c(N)ncnc54)c3)cc2n1
REMARK SMILES IDX 13 1 12 4 11 7 3 8 4 9 38 10 5 11 37 13 8 14 36 15 9 16
REMARK SMILES IDX 10 18 2 21 1 24 6 28 7 30 14 34 15 35 35 36 16 37 18 39
REMARK SMILES IDX 17 41 19 43 20 44 34 45 21 46 28 48 33 49 29 50 32 51 31 52
REMARK SMILES IDX 22 54 23 55 27 56 24 57 25 59 26 61 30 65
REMARK H PARENT 13 2 13 3 12 5 12 6 4 12 36 17 9 19 10 20 2 22 2 23 1 25 1 26
REMARK H PARENT 1 27 6 29 7 31 7 32 7 33 15 38 35 40 17 42 20 47 32 53 23 58
REMARK H PARENT 24 60 26 62 26 63 26 64 30 66 30 67
REMARK Flexibility Score: inf
ROOT
ATOM      1  C   UNL     1     -47.430  35.381  28.145  1.00  0.00    -0.022 C 
ATOM      2  H   UNL     1     -48.359  35.456  28.726  1.00  0.00     0.032 H 
ATOM      3  H   UNL     1     -46.979  34.422  28.430  1.00  0.00     0.032 H 
ENDROOT
BRANCH   1   4
ATOM      4  C   UNL     1     -47.784  35.398  26.650  1.00  0.00    -0.024 C 
ATOM      5  H   UNL     1     -48.836  35.691  26.538  1.00  0.00     0.032 H 
ATOM      6  H   UNL     1     -47.203  36.167  26.124  1.00  0.00     0.032 H 
BRANCH   4   7
ATOM      7  C   UNL     1     -47.595  34.060  25.973  1.00  0.00    -0.045 A 
ATOM      8  C   UNL     1     -49.606  30.168  24.119  1.00  0.00     0.043 A 
ATOM      9  C   UNL     1     -48.394  29.645  23.689  1.00  0.00    -0.017 A 
ATOM     10  N   UNL     1     -49.699  31.352  24.757  1.00  0.00    -0.253 NA
ATOM     11  C   UNL     1     -47.217  30.378  23.866  1.00  0.00     0.045 A 
ATOM     12  H   UNL     1     -48.392  28.676  23.203  1.00  0.00     0.066 H 
ATOM     13  C   UNL     1     -48.578  32.041  25.000  1.00  0.00     0.073 A 
ATOM     14  C   UNL     1     -47.299  31.605  24.587  1.00  0.00     0.023 A 
ATOM     15  C   UNL     1     -48.698  33.243  25.683  1.00  0.00    -0.032 A 
ATOM     16  C   UNL     1     -46.183  32.413  24.913  1.00  0.00    -0.050 A 
ATOM     17  H   UNL     1     -49.696  33.563  25.981  1.00  0.00     0.065 H 
ATOM     18  C   UNL     1     -46.329  33.628  25.587  1.00  0.00    -0.058 A 
ATOM     19  H   UNL     1     -45.177  32.097  24.652  1.00  0.00     0.063 H 
ATOM     20  H   UNL     1     -45.447  34.226  25.807  1.00  0.00     0.063 H 
BRANCH   8  21
ATOM     21  C   UNL     1     -50.888  29.406  23.911  1.00  0.00    -0.013 C 
ATOM     22  H   UNL     1     -50.766  28.721  23.064  1.00  0.00     0.033 H 
ATOM     23  H   UNL     1     -51.098  28.781  24.788  1.00  0.00     0.033 H 
BRANCH  21  24
ATOM     24  C   UNL     1     -52.058  30.340  23.642  1.00  0.00    -0.060 C 
ATOM     25  H   UNL     1     -51.694  31.308  23.284  1.00  0.00     0.023 H 
ATOM     26  H   UNL     1     -52.644  30.511  24.551  1.00  0.00     0.023 H 
ATOM     27  H   UNL     1     -52.730  29.926  22.882  1.00  0.00     0.023 H 
ENDBRANCH  21  24
ENDBRANCH   8  21
BRANCH  11  28
ATOM     28  N   UNL     1     -45.964  29.882  23.451  1.00  0.00    -0.388 N 
ATOM     29  H   UNL     1     -45.221  30.189  24.072  1.00  0.00     0.160 HD
BRANCH  28  30
ATOM     30  C   UNL     1     -45.571  29.952  22.055  1.00  0.00     0.003 C 
ATOM     31  H   UNL     1     -46.464  30.093  21.438  1.00  0.00     0.045 H 
ATOM     32  H   UNL     1     -45.085  29.026  21.731  1.00  0.00     0.045 H 
ATOM     33  H   UNL     1     -44.911  30.805  21.868  1.00  0.00     0.045 H 
ENDBRANCH  28  30
ENDBRANCH  11  28
ENDBRANCH   4   7
ENDBRANCH   1   4
BRANCH   1  34
ATOM     34  C   UNL     1     -46.515  36.506  28.558  1.00  0.00    -0.027 A 
ATOM     35  C   UNL     1     -45.817  36.463  29.757  1.00  0.00     0.030 A 
ATOM     36  C   UNL     1     -46.369  37.653  27.767  1.00  0.00    -0.032 A 
ATOM     37  N   UNL     1     -45.015  37.455  30.196  1.00  0.00    -0.262 NA
ATOM     38  H   UNL     1     -45.885  35.608  30.424  1.00  0.00     0.084 H 
ATOM     39  C   UNL     1     -45.573  38.722  28.202  1.00  0.00     0.066 A 
ATOM     40  H   UNL     1     -46.896  37.684  26.819  1.00  0.00     0.065 H 
ATOM     41  C   UNL     1     -44.913  38.562  29.414  1.00  0.00     0.051 A 
ATOM     42  H   UNL     1     -44.287  39.327  29.858  1.00  0.00     0.086 H 
BRANCH  39  43
ATOM     43  N   UNL     1     -45.484  39.930  27.442  1.00  0.00    -0.299 N 
ATOM     44  C   UNL     1     -44.321  40.418  26.867  1.00  0.00     0.021 A 
ATOM     45  C   UNL     1     -46.506  40.824  27.126  1.00  0.00     0.150 A 
ATOM     46  C   UNL     1     -44.594  41.587  26.188  1.00  0.00     0.033 A 
ATOM     47  H   UNL     1     -43.386  39.887  26.955  1.00  0.00     0.083 H 
ATOM     48  C   UNL     1     -45.987  41.845  26.329  1.00  0.00     0.071 A 
ATOM     49  N   UNL     1     -47.788  40.737  27.537  1.00  0.00    -0.218 NA
ATOM     50  C   UNL     1     -46.901  42.822  25.888  1.00  0.00     0.137 A 
ATOM     51  C   UNL     1     -48.550  41.738  27.081  1.00  0.00     0.120 A 
ATOM     52  N   UNL     1     -48.183  42.758  26.295  1.00  0.00    -0.219 NA
ATOM     53  H   UNL     1     -49.592  41.722  27.382  1.00  0.00     0.106 H 
BRANCH  46  54
ATOM     54  C   UNL     1     -43.614  42.405  25.465  1.00  0.00     0.095 A 
ATOM     55  C   UNL     1     -42.403  42.878  26.022  1.00  0.00    -0.016 A 
ATOM     56  N   UNL     1     -43.773  42.828  24.204  1.00  0.00    -0.173 NA
ATOM     57  C   UNL     1     -41.806  43.604  25.018  1.00  0.00     0.025 A 
ATOM     58  H   UNL     1     -42.015  42.707  27.016  1.00  0.00     0.066 H 
ATOM     59  N   UNL     1     -42.659  43.540  23.957  1.00  0.00    -0.275 N 
ATOM     60  H   UNL     1     -40.872  44.146  24.976  1.00  0.00     0.084 H 
BRANCH  59  61
ATOM     61  C   UNL     1     -42.477  44.145  22.659  1.00  0.00     0.030 C 
ATOM     62  H   UNL     1     -43.423  44.599  22.356  1.00  0.00     0.048 H 
ATOM     63  H   UNL     1     -42.180  43.364  21.955  1.00  0.00     0.048 H 
ATOM     64  H   UNL     1     -41.698  44.909  22.720  1.00  0.00     0.048 H 
ENDBRANCH  59  61
ENDBRANCH  46  54
BRANCH  50  65
ATOM     65  N   UNL     1     -46.572  43.875  25.048  1.00  0.00    -0.383 N 
ATOM     66  H   UNL     1     -47.339  44.117  24.437  1.00  0.00     0.158 HD
ATOM     67  H   UNL     1     -46.111  44.643  25.542  1.00  0.00     0.158 HD
ENDBRANCH  50  65
ENDBRANCH  39  43
ENDBRANCH   1  34
TORSDOF 11
ENDMDL
MODEL 5
REMARK VINA RESULT:      -9.5      2.377     12.222
REMARK SMILES CCc1cc(NC)c2ccc(CCc3cncc(-n4cc(-c5ccn(C)n5)c5c(N)ncnc54)c3)cc2n1
REMARK SMILES IDX 13 1 12 4 11 7 3 8 4 9 38 10 5 11 37 13 8 14 36 15 9 16
REMARK SMILES IDX 10 18 2 21 1 24 6 28 7 30 14 34 15 35 35 36 16 37 18 39
REMARK SMILES IDX 17 41 19 43 20 44 34 45 21 46 28 48 33 49 29 50 32 51 31 52
REMARK SMILES IDX 22 54 23 55 27 56 24 57 25 59 26 61 30 65
REMARK H PARENT 13 2 13 3 12 5 12 6 4 12 36 17 9 19 10 20 2 22 2 23 1 25 1 26
REMARK H PARENT 1 27 6 29 7 31 7 32 7 33 15 38 35 40 17 42 20 47 32 53 23 58
REMARK H PARENT 24 60 26 62 26 63 26 64 30 66 30 67
REMARK Flexibility Score: inf
ROOT
ATOM      1  C   UNL     1     -46.994  35.315  27.909  1.00  0.00    -0.022 C 
ATOM      2  H   UNL     1     -47.984  35.327  28.384  1.00  0.00     0.032 H 
ATOM      3  H   UNL     1     -46.507  34.398  28.262  1.00  0.00     0.032 H 
ENDROOT
BRANCH   1   4
ATOM      4  C   UNL     1     -47.182  35.285  26.384  1.00  0.00    -0.024 C 
ATOM      5  H   UNL     1     -47.994  35.973  26.114  1.00  0.00     0.032 H 
ATOM      6  H   UNL     1     -46.287  35.667  25.876  1.00  0.00     0.032 H 
BRANCH   4   7
ATOM      7  C   UNL     1     -47.529  33.915  25.849  1.00  0.00    -0.045 A 
ATOM      8  C   UNL     1     -46.285  30.230  23.110  1.00  0.00     0.043 A 
ATOM      9  C   UNL     1     -47.384  29.471  23.486  1.00  0.00    -0.017 A 
ATOM     10  N   UNL     1     -46.057  31.467  23.595  1.00  0.00    -0.253 NA
ATOM     11  C   UNL     1     -48.278  29.965  24.442  1.00  0.00     0.045 A 
ATOM     12  H   UNL     1     -47.517  28.493  23.038  1.00  0.00     0.066 H 
ATOM     13  C   UNL     1     -46.934  31.990  24.460  1.00  0.00     0.073 A 
ATOM     14  C   UNL     1     -48.073  31.292  24.920  1.00  0.00     0.023 A 
ATOM     15  C   UNL     1     -46.692  33.276  24.923  1.00  0.00    -0.032 A 
ATOM     16  C   UNL     1     -48.938  31.954  25.826  1.00  0.00    -0.050 A 
ATOM     17  H   UNL     1     -45.800  33.788  24.562  1.00  0.00     0.065 H 
ATOM     18  C   UNL     1     -48.666  33.243  26.291  1.00  0.00    -0.058 A 
ATOM     19  H   UNL     1     -49.847  31.472  26.174  1.00  0.00     0.063 H 
ATOM     20  H   UNL     1     -49.348  33.711  26.997  1.00  0.00     0.063 H 
BRANCH   8  21
ATOM     21  C   UNL     1     -45.297  29.703  22.103  1.00  0.00    -0.013 C 
ATOM     22  H   UNL     1     -45.818  29.497  21.161  1.00  0.00     0.033 H 
ATOM     23  H   UNL     1     -44.545  30.470  21.880  1.00  0.00     0.033 H 
BRANCH  21  24
ATOM     24  C   UNL     1     -44.621  28.432  22.594  1.00  0.00    -0.060 C 
ATOM     25  H   UNL     1     -43.561  28.620  22.792  1.00  0.00     0.023 H 
ATOM     26  H   UNL     1     -44.691  27.633  21.848  1.00  0.00     0.023 H 
ATOM     27  H   UNL     1     -45.081  28.069  23.519  1.00  0.00     0.023 H 
ENDBRANCH  21  24
ENDBRANCH   8  21
BRANCH  11  28
ATOM     28  N   UNL     1     -49.410  29.232  24.849  1.00  0.00    -0.388 N 
ATOM     29  H   UNL     1     -49.320  28.912  25.809  1.00  0.00     0.160 HD
BRANCH  28  30
ATOM     30  C   UNL     1     -49.973  28.208  23.986  1.00  0.00     0.003 C 
ATOM     31  H   UNL     1     -49.163  27.722  23.431  1.00  0.00     0.045 H 
ATOM     32  H   UNL     1     -50.666  28.638  23.256  1.00  0.00     0.045 H 
ATOM     33  H   UNL     1     -50.479  27.430  24.566  1.00  0.00     0.045 H 
ENDBRANCH  28  30
ENDBRANCH  11  28
ENDBRANCH   4   7
ENDBRANCH   1   4
BRANCH   1  34
ATOM     34  C   UNL     1     -46.216  36.512  28.394  1.00  0.00    -0.027 A 
ATOM     35  C   UNL     1     -45.634  36.530  29.654  1.00  0.00     0.030 A 
ATOM     36  C   UNL     1     -46.090  37.665  27.609  1.00  0.00    -0.032 A 
ATOM     37  N   UNL     1     -44.960  37.585  30.156  1.00  0.00    -0.262 NA
ATOM     38  H   UNL     1     -45.695  35.674  30.321  1.00  0.00     0.084 H 
ATOM     39  C   UNL     1     -45.428  38.797  28.105  1.00  0.00     0.066 A 
ATOM     40  H   UNL     1     -46.525  37.651  26.615  1.00  0.00     0.065 H 
ATOM     41  C   UNL     1     -44.875  38.695  29.376  1.00  0.00     0.051 A 
ATOM     42  H   UNL     1     -44.357  39.510  29.868  1.00  0.00     0.086 H 
BRANCH  39  43
ATOM     43  N   UNL     1     -45.365  40.006  27.345  1.00  0.00    -0.299 N 
ATOM     44  C   UNL     1     -44.221  40.503  26.743  1.00  0.00     0.021 A 
ATOM     45  C   UNL     1     -46.402  40.893  27.053  1.00  0.00     0.150 A 
ATOM     46  C   UNL     1     -44.518  41.671  26.071  1.00  0.00     0.033 A 
ATOM     47  H   UNL     1     -43.279  39.979  26.809  1.00  0.00     0.083 H 
ATOM     48  C   UNL     1     -45.909  41.918  26.245  1.00  0.00     0.071 A 
ATOM     49  N   UNL     1     -47.673  40.796  27.494  1.00  0.00    -0.218 NA
ATOM     50  C   UNL     1     -46.840  42.888  25.826  1.00  0.00     0.137 A 
ATOM     51  C   UNL     1     -48.452  41.791  27.057  1.00  0.00     0.120 A 
ATOM     52  N   UNL     1     -48.112  42.814  26.263  1.00  0.00    -0.219 NA
ATOM     53  H   UNL     1     -49.488  41.767  27.383  1.00  0.00     0.106 H 
BRANCH  46  54
ATOM     54  C   UNL     1     -43.561  42.496  25.327  1.00  0.00     0.095 A 
ATOM     55  C   UNL     1     -42.327  42.953  25.846  1.00  0.00    -0.016 A 
ATOM     56  N   UNL     1     -43.766  42.943  24.081  1.00  0.00    -0.173 NA
ATOM     57  C   UNL     1     -41.765  43.694  24.833  1.00  0.00     0.025 A 
ATOM     58  H   UNL     1     -41.903  42.762  26.820  1.00  0.00     0.066 H 
ATOM     59  N   UNL     1     -42.657  43.654  23.804  1.00  0.00    -0.275 N 
ATOM     60  H   UNL     1     -40.830  44.231  24.765  1.00  0.00     0.084 H 
BRANCH  59  61
ATOM     61  C   UNL     1     -42.521  44.281  22.511  1.00  0.00     0.030 C 
ATOM     62  H   UNL     1     -42.452  45.362  22.659  1.00  0.00     0.048 H 
ATOM     63  H   UNL     1     -43.399  44.028  21.913  1.00  0.00     0.048 H 
ATOM     64  H   UNL     1     -41.616  43.912  22.022  1.00  0.00     0.048 H 
ENDBRANCH  59  61
ENDBRANCH  46  54
BRANCH  50  65
ATOM     65  N   UNL     1     -46.539  43.944  24.980  1.00  0.00    -0.383 N 
ATOM     66  H   UNL     1     -46.748  44.835  25.408  1.00  0.00     0.158 HD
ATOM     67  H   UNL     1     -45.620  43.845  24.539  1.00  0.00     0.158 HD
ENDBRANCH  50  65
ENDBRANCH  39  43
ENDBRANCH   1  34
TORSDOF 11
ENDMDL
MODEL 6
REMARK VINA RESULT:      -9.5      2.204      2.622
REMARK SMILES CCc1cc(NC)c2ccc(CCc3cncc(-n4cc(-c5ccn(C)n5)c5c(N)ncnc54)c3)cc2n1
REMARK SMILES IDX 13 1 12 4 11 7 3 8 4 9 38 10 5 11 37 13 8 14 36 15 9 16
REMARK SMILES IDX 10 18 2 21 1 24 6 28 7 30 14 34 15 35 35 36 16 37 18 39
REMARK SMILES IDX 17 41 19 43 20 44 34 45 21 46 28 48 33 49 29 50 32 51 31 52
REMARK SMILES IDX 22 54 23 55 27 56 24 57 25 59 26 61 30 65
REMARK H PARENT 13 2 13 3 12 5 12 6 4 12 36 17 9 19 10 20 2 22 2 23 1 25 1 26
REMARK H PARENT 1 27 6 29 7 31 7 32 7 33 15 38 35 40 17 42 20 47 32 53 23 58
REMARK H PARENT 24 60 26 62 26 63 26 64 30 66 30 67
REMARK Flexibility Score: inf
ROOT
ATOM      1  C   UNL     1     -48.214  36.405  27.371  1.00  0.00    -0.022 C 
ATOM      2  H   UNL     1     -49.277  36.310  27.630  1.00  0.00     0.032 H 
ATOM      3  H   UNL     1     -48.189  36.919  26.402  1.00  0.00     0.032 H 
ENDROOT
BRANCH   1   4
ATOM      4  C   UNL     1     -47.518  37.242  28.456  1.00  0.00    -0.024 C 
ATOM      5  H   UNL     1     -48.265  37.551  29.198  1.00  0.00     0.032 H 
ATOM      6  H   UNL     1     -46.786  36.635  29.003  1.00  0.00     0.032 H 
BRANCH   4   7
ATOM      7  C   UNL     1     -46.850  38.486  27.917  1.00  0.00    -0.045 A 
ATOM      8  C   UNL     1     -42.992  41.267  27.830  1.00  0.00     0.043 A 
ATOM      9  C   UNL     1     -43.520  42.114  26.865  1.00  0.00    -0.017 A 
ATOM     10  N   UNL     1     -43.661  40.195  28.300  1.00  0.00    -0.253 NA
ATOM     11  C   UNL     1     -44.772  41.837  26.306  1.00  0.00     0.045 A 
ATOM     12  H   UNL     1     -42.935  42.970  26.551  1.00  0.00     0.066 H 
ATOM     13  C   UNL     1     -44.889  39.948  27.830  1.00  0.00     0.073 A 
ATOM     14  C   UNL     1     -45.508  40.737  26.835  1.00  0.00     0.023 A 
ATOM     15  C   UNL     1     -45.568  38.855  28.350  1.00  0.00    -0.032 A 
ATOM     16  C   UNL     1     -46.818  40.385  26.425  1.00  0.00    -0.050 A 
ATOM     17  H   UNL     1     -45.064  38.255  29.108  1.00  0.00     0.065 H 
ATOM     18  C   UNL     1     -47.476  39.271  26.951  1.00  0.00    -0.058 A 
ATOM     19  H   UNL     1     -47.348  40.987  25.693  1.00  0.00     0.063 H 
ATOM     20  H   UNL     1     -48.476  39.027  26.600  1.00  0.00     0.063 H 
BRANCH   8  21
ATOM     21  C   UNL     1     -41.633  41.533  28.423  1.00  0.00    -0.013 C 
ATOM     22  H   UNL     1     -40.886  40.927  27.898  1.00  0.00     0.033 H 
ATOM     23  H   UNL     1     -41.353  42.581  28.260  1.00  0.00     0.033 H 
BRANCH  21  24
ATOM     24  C   UNL     1     -41.596  41.206  29.908  1.00  0.00    -0.060 C 
ATOM     25  H   UNL     1     -40.844  40.437  30.107  1.00  0.00     0.023 H 
ATOM     26  H   UNL     1     -42.565  40.833  30.255  1.00  0.00     0.023 H 
ATOM     27  H   UNL     1     -41.344  42.091  30.503  1.00  0.00     0.023 H 
ENDBRANCH  21  24
ENDBRANCH   8  21
BRANCH  11  28
ATOM     28  N   UNL     1     -45.349  42.673  25.329  1.00  0.00    -0.388 N 
ATOM     29  H   UNL     1     -44.867  42.589  24.439  1.00  0.00     0.160 HD
BRANCH  28  30
ATOM     30  C   UNL     1     -45.679  44.052  25.642  1.00  0.00     0.003 C 
ATOM     31  H   UNL     1     -46.343  44.073  26.512  1.00  0.00     0.045 H 
ATOM     32  H   UNL     1     -46.203  44.535  24.811  1.00  0.00     0.045 H 
ATOM     33  H   UNL     1     -44.785  44.628  25.903  1.00  0.00     0.045 H 
ENDBRANCH  28  30
ENDBRANCH  11  28
ENDBRANCH   4   7
ENDBRANCH   1   4
BRANCH   1  34
ATOM     34  C   UNL     1     -47.634  35.022  27.217  1.00  0.00    -0.027 A 
ATOM     35  C   UNL     1     -46.574  34.593  28.005  1.00  0.00     0.030 A 
ATOM     36  C   UNL     1     -48.114  34.134  26.245  1.00  0.00    -0.032 A 
ATOM     37  N   UNL     1     -45.991  33.383  27.887  1.00  0.00    -0.262 NA
ATOM     38  H   UNL     1     -46.146  35.229  28.776  1.00  0.00     0.084 H 
ATOM     39  C   UNL     1     -47.514  32.880  26.065  1.00  0.00     0.066 A 
ATOM     40  H   UNL     1     -48.956  34.455  25.639  1.00  0.00     0.065 H 
ATOM     41  C   UNL     1     -46.467  32.557  26.919  1.00  0.00     0.051 A 
ATOM     42  H   UNL     1     -45.917  31.625  26.861  1.00  0.00     0.086 H 
BRANCH  39  43
ATOM     43  N   UNL     1     -47.942  32.002  25.021  1.00  0.00    -0.299 N 
ATOM     44  C   UNL     1     -49.136  31.300  25.020  1.00  0.00     0.021 A 
ATOM     45  C   UNL     1     -47.280  31.691  23.833  1.00  0.00     0.150 A 
ATOM     46  C   UNL     1     -49.244  30.569  23.855  1.00  0.00     0.033 A 
ATOM     47  H   UNL     1     -49.841  31.389  25.833  1.00  0.00     0.083 H 
ATOM     48  C   UNL     1     -48.077  30.826  23.082  1.00  0.00     0.071 A 
ATOM     49  N   UNL     1     -46.059  32.133  23.470  1.00  0.00    -0.218 NA
ATOM     50  C   UNL     1     -47.569  30.438  21.827  1.00  0.00     0.137 A 
ATOM     51  C   UNL     1     -45.673  31.670  22.275  1.00  0.00     0.120 A 
ATOM     52  N   UNL     1     -46.348  30.860  21.450  1.00  0.00    -0.219 NA
ATOM     53  H   UNL     1     -44.694  31.991  21.931  1.00  0.00     0.106 H 
BRANCH  46  54
ATOM     54  C   UNL     1     -50.362  29.688  23.499  1.00  0.00     0.095 A 
ATOM     55  C   UNL     1     -51.725  30.061  23.562  1.00  0.00    -0.016 A 
ATOM     56  N   UNL     1     -50.218  28.414  23.109  1.00  0.00    -0.173 NA
ATOM     57  C   UNL     1     -52.421  28.943  23.164  1.00  0.00     0.025 A 
ATOM     58  H   UNL     1     -52.142  31.014  23.852  1.00  0.00     0.066 H 
ATOM     59  N   UNL     1     -51.480  27.994  22.902  1.00  0.00    -0.275 N 
ATOM     60  H   UNL     1     -53.479  28.754  23.051  1.00  0.00     0.084 H 
BRANCH  59  61
ATOM     61  C   UNL     1     -51.711  26.644  22.447  1.00  0.00     0.030 C 
ATOM     62  H   UNL     1     -51.294  25.955  23.186  1.00  0.00     0.048 H 
ATOM     63  H   UNL     1     -51.218  26.517  21.480  1.00  0.00     0.048 H 
ATOM     64  H   UNL     1     -52.786  26.474  22.343  1.00  0.00     0.048 H 
ENDBRANCH  59  61
ENDBRANCH  46  54
BRANCH  50  65
ATOM     65  N   UNL     1     -48.247  29.628  20.929  1.00  0.00    -0.383 N 
ATOM     66  H   UNL     1     -47.614  29.176  20.285  1.00  0.00     0.158 HD
ATOM     67  H   UNL     1     -48.948  29.037  21.383  1.00  0.00     0.158 HD
ENDBRANCH  50  65
ENDBRANCH  39  43
ENDBRANCH   1  34
TORSDOF 11
ENDMDL
MODEL 7
REMARK VINA RESULT:      -9.4      1.707     12.608
REMARK SMILES CCc1cc(NC)c2ccc(CCc3cncc(-n4cc(-c5ccn(C)n5)c5c(N)ncnc54)c3)cc2n1
REMARK SMILES IDX 13 1 12 4 11 7 3 8 4 9 38 10 5 11 37 13 8 14 36 15 9 16
REMARK SMILES IDX 10 18 2 21 1 24 6 28 7 30 14 34 15 35 35 36 16 37 18 39
REMARK SMILES IDX 17 41 19 43 20 44 34 45 21 46 28 48 33 49 29 50 32 51 31 52
REMARK SMILES IDX 22 54 23 55 27 56 24 57 25 59 26 61 30 65
REMARK H PARENT 13 2 13 3 12 5 12 6 4 12 36 17 9 19 10 20 2 22 2 23 1 25 1 26
REMARK H PARENT 1 27 6 29 7 31 7 32 7 33 15 38 35 40 17 42 20 47 32 53 23 58
REMARK H PARENT 24 60 26 62 26 63 26 64 30 66 30 67
REMARK Flexibility Score: inf
ROOT
ATOM      1  C   UNL     1     -47.183  34.433  25.864  1.00  0.00    -0.022 C 
ATOM      2  H   UNL     1     -46.099  34.318  25.743  1.00  0.00     0.032 H 
ATOM      3  H   UNL     1     -47.585  34.547  24.850  1.00  0.00     0.032 H 
ENDROOT
BRANCH   1   4
ATOM      4  C   UNL     1     -47.739  33.167  26.535  1.00  0.00    -0.024 C 
ATOM      5  H   UNL     1     -47.052  32.859  27.334  1.00  0.00     0.032 H 
ATOM      6  H   UNL     1     -48.695  33.379  27.030  1.00  0.00     0.032 H 
BRANCH   4   7
ATOM      7  C   UNL     1     -47.902  32.005  25.582  1.00  0.00    -0.045 A 
ATOM      8  C   UNL     1     -49.310  27.510  24.920  1.00  0.00     0.043 A 
ATOM      9  C   UNL     1     -49.059  27.544  23.555  1.00  0.00    -0.017 A 
ATOM     10  N   UNL     1     -49.102  28.573  25.722  1.00  0.00    -0.253 NA
ATOM     11  C   UNL     1     -48.620  28.729  22.957  1.00  0.00     0.045 A 
ATOM     12  H   UNL     1     -49.228  26.644  22.975  1.00  0.00     0.066 H 
ATOM     13  C   UNL     1     -48.618  29.699  25.185  1.00  0.00     0.073 A 
ATOM     14  C   UNL     1     -48.347  29.841  23.806  1.00  0.00     0.023 A 
ATOM     15  C   UNL     1     -48.386  30.770  26.037  1.00  0.00    -0.032 A 
ATOM     16  C   UNL     1     -47.823  31.078  23.354  1.00  0.00    -0.050 A 
ATOM     17  H   UNL     1     -48.613  30.638  27.095  1.00  0.00     0.065 H 
ATOM     18  C   UNL     1     -47.613  32.147  24.227  1.00  0.00    -0.058 A 
ATOM     19  H   UNL     1     -47.561  31.218  22.309  1.00  0.00     0.063 H 
ATOM     20  H   UNL     1     -47.222  33.085  23.839  1.00  0.00     0.063 H 
BRANCH   8  21
ATOM     21  C   UNL     1     -49.810  26.250  25.577  1.00  0.00    -0.013 C 
ATOM     22  H   UNL     1     -50.526  26.515  26.364  1.00  0.00     0.033 H 
ATOM     23  H   UNL     1     -50.360  25.642  24.849  1.00  0.00     0.033 H 
BRANCH  21  24
ATOM     24  C   UNL     1     -48.671  25.443  26.181  1.00  0.00    -0.060 C 
ATOM     25  H   UNL     1     -48.915  24.377  26.169  1.00  0.00     0.023 H 
ATOM     26  H   UNL     1     -48.485  25.738  27.219  1.00  0.00     0.023 H 
ATOM     27  H   UNL     1     -47.742  25.586  25.619  1.00  0.00     0.023 H 
ENDBRANCH  21  24
ENDBRANCH   8  21
BRANCH  11  28
ATOM     28  N   UNL     1     -48.346  28.807  21.576  1.00  0.00    -0.388 N 
ATOM     29  H   UNL     1     -47.732  29.587  21.364  1.00  0.00     0.160 HD
BRANCH  28  30
ATOM     30  C   UNL     1     -49.418  28.679  20.605  1.00  0.00     0.003 C 
ATOM     31  H   UNL     1     -50.327  29.132  21.013  1.00  0.00     0.045 H 
ATOM     32  H   UNL     1     -49.637  27.628  20.389  1.00  0.00     0.045 H 
ATOM     33  H   UNL     1     -49.181  29.208  19.676  1.00  0.00     0.045 H 
ENDBRANCH  28  30
ENDBRANCH  11  28
ENDBRANCH   4   7
ENDBRANCH   1   4
BRANCH   1  34
ATOM     34  C   UNL     1     -47.447  35.693  26.650  1.00  0.00    -0.027 A 
ATOM     35  C   UNL     1     -48.670  35.914  27.268  1.00  0.00     0.030 A 
ATOM     36  C   UNL     1     -46.482  36.704  26.749  1.00  0.00    -0.032 A 
ATOM     37  N   UNL     1     -48.975  37.036  27.951  1.00  0.00    -0.262 NA
ATOM     38  H   UNL     1     -49.467  35.176  27.229  1.00  0.00     0.084 H 
ATOM     39  C   UNL     1     -46.770  37.901  27.420  1.00  0.00     0.066 A 
ATOM     40  H   UNL     1     -45.516  36.530  26.286  1.00  0.00     0.065 H 
ATOM     41  C   UNL     1     -48.024  38.005  28.009  1.00  0.00     0.051 A 
ATOM     42  H   UNL     1     -48.364  38.889  28.536  1.00  0.00     0.086 H 
BRANCH  39  43
ATOM     43  N   UNL     1     -45.824  38.972  27.455  1.00  0.00    -0.299 N 
ATOM     44  C   UNL     1     -45.758  40.000  26.528  1.00  0.00     0.021 A 
ATOM     45  C   UNL     1     -44.821  39.201  28.397  1.00  0.00     0.150 A 
ATOM     46  C   UNL     1     -44.747  40.873  26.874  1.00  0.00     0.033 A 
ATOM     47  H   UNL     1     -46.451  40.056  25.702  1.00  0.00     0.083 H 
ATOM     48  C   UNL     1     -44.156  40.385  28.074  1.00  0.00     0.071 A 
ATOM     49  N   UNL     1     -44.518  38.403  29.441  1.00  0.00    -0.218 NA
ATOM     50  C   UNL     1     -43.128  40.786  28.949  1.00  0.00     0.137 A 
ATOM     51  C   UNL     1     -43.505  38.872  30.178  1.00  0.00     0.120 A 
ATOM     52  N   UNL     1     -42.805  39.998  29.992  1.00  0.00    -0.219 NA
ATOM     53  H   UNL     1     -43.216  38.269  31.033  1.00  0.00     0.106 H 
BRANCH  46  54
ATOM     54  C   UNL     1     -44.362  42.074  26.125  1.00  0.00     0.095 A 
ATOM     55  C   UNL     1     -44.471  43.394  26.621  1.00  0.00    -0.016 A 
ATOM     56  N   UNL     1     -43.898  42.058  24.868  1.00  0.00    -0.173 NA
ATOM     57  C   UNL     1     -44.022  44.199  25.600  1.00  0.00     0.025 A 
ATOM     58  H   UNL     1     -44.821  43.714  27.591  1.00  0.00     0.066 H 
ATOM     59  N   UNL     1     -43.689  43.356  24.583  1.00  0.00    -0.275 N 
ATOM     60  H   UNL     1     -43.917  45.271  25.519  1.00  0.00     0.084 H 
BRANCH  59  61
ATOM     61  C   UNL     1     -43.163  43.722  23.289  1.00  0.00     0.030 C 
ATOM     62  H   UNL     1     -43.940  44.261  22.741  1.00  0.00     0.048 H 
ATOM     63  H   UNL     1     -42.882  42.808  22.761  1.00  0.00     0.048 H 
ATOM     64  H   UNL     1     -42.287  44.362  23.421  1.00  0.00     0.048 H 
ENDBRANCH  59  61
ENDBRANCH  46  54
BRANCH  50  65
ATOM     65  N   UNL     1     -42.401  41.959  28.812  1.00  0.00    -0.383 N 
ATOM     66  H   UNL     1     -41.687  41.872  28.103  1.00  0.00     0.158 HD
ATOM     67  H   UNL     1     -42.997  42.789  28.772  1.00  0.00     0.158 HD
ENDBRANCH  50  65
ENDBRANCH  39  43
ENDBRANCH   1  34
TORSDOF 11
ENDMDL
