MODEL 1
REMARK VINA RESULT:     -10.7      0.000      0.000
REMARK SMILES c1cc(-c2cn(Cc3cc4[nH]c(CNCC5CCC5)cc4cn3)nn2)c2cn[nH]c2c1
REMARK SMILES IDX 8 1 9 2 10 3 11 4 12 5 20 6 21 7 22 8 23 9 7 14 6 17 4 18
REMARK SMILES IDX 5 19 25 20 24 22 3 23 1 24 2 25 31 26 30 29 26 31 29 32
REMARK SMILES IDX 27 33 28 34 13 37 14 40 15 42 16 45 17 46 19 47 18 49
REMARK H PARENT 9 10 11 11 20 12 22 13 7 15 7 16 5 21 1 27 2 28 31 30 29 35
REMARK H PARENT 27 36 13 38 13 39 14 41 15 43 15 44 16 48 17 50 17 51 19 52
REMARK H PARENT 19 53 18 54 18 55
REMARK Flexibility Score: inf
ROOT
ATOM      1  C   UNL     1     -47.594  35.762  27.158  1.00  0.00     0.064 A 
ATOM      2  C   UNL     1     -48.626  34.865  26.875  1.00  0.00    -0.014 A 
ATOM      3  C   UNL     1     -48.250  33.700  26.209  1.00  0.00     0.049 A 
ATOM      4  N   UNL     1     -49.005  32.636  25.775  1.00  0.00    -0.357 N 
ATOM      5  C   UNL     1     -48.204  31.696  25.169  1.00  0.00     0.030 A 
ATOM      6  C   UNL     1     -46.911  32.182  25.200  1.00  0.00    -0.031 A 
ATOM      7  C   UNL     1     -46.928  33.444  25.855  1.00  0.00     0.018 A 
ATOM      8  C   UNL     1     -45.955  34.394  26.179  1.00  0.00     0.037 A 
ATOM      9  N   UNL     1     -46.295  35.538  26.824  1.00  0.00    -0.259 NA
ATOM     10  H   UNL     1     -49.657  35.069  27.143  1.00  0.00     0.067 H 
ATOM     11  H   UNL     1     -50.007  32.556  25.893  1.00  0.00     0.166 HD
ATOM     12  H   UNL     1     -46.043  31.679  24.793  1.00  0.00     0.065 H 
ATOM     13  H   UNL     1     -44.905  34.268  25.937  1.00  0.00     0.085 H 
ENDROOT
BRANCH   1  14
ATOM     14  C   UNL     1     -47.893  37.060  27.861  1.00  0.00     0.085 C 
ATOM     15  H   UNL     1     -47.967  36.914  28.945  1.00  0.00     0.058 H 
ATOM     16  H   UNL     1     -48.844  37.481  27.512  1.00  0.00     0.058 H 
BRANCH  14  17
ATOM     17  N   UNL     1     -46.839  38.025  27.626  1.00  0.00    -0.246 N 
ATOM     18  C   UNL     1     -45.134  39.342  27.758  1.00  0.00     0.113 A 
ATOM     19  C   UNL     1     -45.863  38.432  28.489  1.00  0.00     0.054 A 
ATOM     20  N   UNL     1     -45.708  39.485  26.520  1.00  0.00    -0.130 NA
ATOM     21  H   UNL     1     -45.788  38.051  29.497  1.00  0.00     0.086 H 
ATOM     22  N   UNL     1     -46.751  38.668  26.447  1.00  0.00    -0.066 NA
BRANCH  18  23
ATOM     23  C   UNL     1     -43.982  40.096  28.196  1.00  0.00     0.015 A 
ATOM     24  C   UNL     1     -42.234  40.489  29.856  1.00  0.00    -0.059 A 
ATOM     25  C   UNL     1     -43.353  39.781  29.415  1.00  0.00    -0.052 A 
ATOM     26  C   UNL     1     -41.704  41.539  29.103  1.00  0.00    -0.036 A 
ATOM     27  H   UNL     1     -41.767  40.216  30.800  1.00  0.00     0.062 H 
ATOM     28  H   UNL     1     -43.739  38.967  30.028  1.00  0.00     0.063 H 
ATOM     29  C   UNL     1     -42.351  41.854  27.903  1.00  0.00     0.066 A 
ATOM     30  H   UNL     1     -40.835  42.090  29.447  1.00  0.00     0.065 H 
ATOM     31  C   UNL     1     -43.472  41.170  27.434  1.00  0.00     0.029 A 
ATOM     32  N   UNL     1     -42.093  42.821  26.968  1.00  0.00    -0.278 N 
ATOM     33  C   UNL     1     -43.798  41.842  26.230  1.00  0.00     0.057 A 
ATOM     34  N   UNL     1     -42.956  42.837  25.939  1.00  0.00    -0.183 NA
ATOM     35  H   UNL     1     -41.347  43.508  26.979  1.00  0.00     0.190 HD
ATOM     36  H   UNL     1     -44.620  41.650  25.554  1.00  0.00     0.087 H 
ENDBRANCH  18  23
ENDBRANCH  14  17
ENDBRANCH   1  14
BRANCH   5  37
ATOM     37  C   UNL     1     -48.761  30.434  24.604  1.00  0.00     0.036 C 
ATOM     38  H   UNL     1     -49.798  30.275  24.922  1.00  0.00     0.049 H 
ATOM     39  H   UNL     1     -48.790  30.526  23.512  1.00  0.00     0.049 H 
BRANCH  37  40
ATOM     40  N   UNL     1     -47.930  29.284  24.940  1.00  0.00    -0.311 NA
ATOM     41  H   UNL     1     -47.112  29.608  25.454  1.00  0.00     0.123 HD
BRANCH  40  42
ATOM     42  C   UNL     1     -48.636  28.271  25.726  1.00  0.00    -0.002 C 
ATOM     43  H   UNL     1     -48.357  28.342  26.784  1.00  0.00     0.043 H 
ATOM     44  H   UNL     1     -49.719  28.427  25.655  1.00  0.00     0.043 H 
BRANCH  42  45
ATOM     45  C   UNL     1     -48.269  26.874  25.213  1.00  0.00    -0.029 C 
ATOM     46  C   UNL     1     -48.522  25.681  26.173  1.00  0.00    -0.049 C 
ATOM     47  C   UNL     1     -46.763  26.517  25.297  1.00  0.00    -0.049 C 
ATOM     48  H   UNL     1     -48.679  26.714  24.207  1.00  0.00     0.032 H 
ATOM     49  C   UNL     1     -47.056  25.806  26.631  1.00  0.00    -0.053 C 
ATOM     50  H   UNL     1     -48.736  24.741  25.650  1.00  0.00     0.027 H 
ATOM     51  H   UNL     1     -49.273  25.826  26.954  1.00  0.00     0.027 H 
ATOM     52  H   UNL     1     -46.063  27.357  25.353  1.00  0.00     0.027 H 
ATOM     53  H   UNL     1     -46.431  25.836  24.503  1.00  0.00     0.027 H 
ATOM     54  H   UNL     1     -46.528  24.864  26.793  1.00  0.00     0.027 H 
ATOM     55  H   UNL     1     -46.922  26.445  27.511  1.00  0.00     0.027 H 
ENDBRANCH  42  45
ENDBRANCH  40  42
ENDBRANCH  37  40
ENDBRANCH   5  37
TORSDOF 7
ENDMDL
MODEL 2
REMARK VINA RESULT:     -10.2      2.480      3.469
REMARK SMILES c1cc(-c2cn(Cc3cc4[nH]c(CNCC5CCC5)cc4cn3)nn2)c2cn[nH]c2c1
REMARK SMILES IDX 8 1 9 2 10 3 11 4 12 5 20 6 21 7 22 8 23 9 7 14 6 17 4 18
REMARK SMILES IDX 5 19 25 20 24 22 3 23 1 24 2 25 31 26 30 29 26 31 29 32
REMARK SMILES IDX 27 33 28 34 13 37 14 40 15 42 16 45 17 46 19 47 18 49
REMARK H PARENT 9 10 11 11 20 12 22 13 7 15 7 16 5 21 1 27 2 28 31 30 29 35
REMARK H PARENT 27 36 13 38 13 39 14 41 15 43 15 44 16 48 17 50 17 51 19 52
REMARK H PARENT 19 53 18 54 18 55
REMARK Flexibility Score: inf
ROOT
ATOM      1  C   UNL     1     -46.951  35.231  27.862  1.00  0.00     0.064 A 
ATOM      2  C   UNL     1     -45.965  34.532  27.163  1.00  0.00    -0.014 A 
ATOM      3  C   UNL     1     -46.424  33.656  26.181  1.00  0.00     0.049 A 
ATOM      4  N   UNL     1     -45.733  32.821  25.335  1.00  0.00    -0.357 N 
ATOM      5  C   UNL     1     -46.605  32.141  24.517  1.00  0.00     0.030 A 
ATOM      6  C   UNL     1     -47.882  32.539  24.862  1.00  0.00    -0.031 A 
ATOM      7  C   UNL     1     -47.780  33.495  25.909  1.00  0.00     0.018 A 
ATOM      8  C   UNL     1     -48.702  34.237  26.654  1.00  0.00     0.037 A 
ATOM      9  N   UNL     1     -48.281  35.093  27.619  1.00  0.00    -0.259 NA
ATOM     10  H   UNL     1     -44.909  34.651  27.381  1.00  0.00     0.067 H 
ATOM     11  H   UNL     1     -44.726  32.727  25.316  1.00  0.00     0.166 HD
ATOM     12  H   UNL     1     -48.796  32.178  24.407  1.00  0.00     0.065 H 
ATOM     13  H   UNL     1     -49.774  34.166  26.503  1.00  0.00     0.085 H 
ENDROOT
BRANCH   1  14
ATOM     14  C   UNL     1     -46.564  36.191  28.957  1.00  0.00     0.085 C 
ATOM     15  H   UNL     1     -45.674  35.840  29.493  1.00  0.00     0.058 H 
ATOM     16  H   UNL     1     -47.376  36.296  29.686  1.00  0.00     0.058 H 
BRANCH  14  17
ATOM     17  N   UNL     1     -46.252  37.494  28.409  1.00  0.00    -0.246 N 
ATOM     18  C   UNL     1     -45.307  39.308  27.722  1.00  0.00     0.113 A 
ATOM     19  C   UNL     1     -45.034  38.105  28.330  1.00  0.00     0.054 A 
ATOM     20  N   UNL     1     -46.659  39.403  27.500  1.00  0.00    -0.130 NA
ATOM     21  H   UNL     1     -44.131  37.642  28.700  1.00  0.00     0.086 H 
ATOM     22  N   UNL     1     -47.229  38.282  27.921  1.00  0.00    -0.066 NA
BRANCH  18  23
ATOM     23  C   UNL     1     -44.370  40.361  27.403  1.00  0.00     0.015 A 
ATOM     24  C   UNL     1     -43.571  42.061  25.843  1.00  0.00    -0.059 A 
ATOM     25  C   UNL     1     -44.458  41.035  26.170  1.00  0.00    -0.052 A 
ATOM     26  C   UNL     1     -42.561  42.450  26.726  1.00  0.00    -0.036 A 
ATOM     27  H   UNL     1     -43.669  42.567  24.884  1.00  0.00     0.062 H 
ATOM     28  H   UNL     1     -45.234  40.759  25.457  1.00  0.00     0.063 H 
ATOM     29  C   UNL     1     -42.474  41.758  27.939  1.00  0.00     0.066 A 
ATOM     30  H   UNL     1     -41.871  43.246  26.470  1.00  0.00     0.065 H 
ATOM     31  C   UNL     1     -43.341  40.727  28.298  1.00  0.00     0.029 A 
ATOM     32  N   UNL     1     -41.601  41.886  28.987  1.00  0.00    -0.278 N 
ATOM     33  C   UNL     1     -42.864  40.310  29.564  1.00  0.00     0.057 A 
ATOM     34  N   UNL     1     -41.814  41.019  29.991  1.00  0.00    -0.183 NA
ATOM     35  H   UNL     1     -40.832  42.541  29.075  1.00  0.00     0.190 HD
ATOM     36  H   UNL     1     -43.234  39.512  30.194  1.00  0.00     0.087 H 
ENDBRANCH  18  23
ENDBRANCH  14  17
ENDBRANCH   1  14
BRANCH   5  37
ATOM     37  C   UNL     1     -46.128  31.165  23.497  1.00  0.00     0.036 C 
ATOM     38  H   UNL     1     -45.096  31.375  23.190  1.00  0.00     0.049 H 
ATOM     39  H   UNL     1     -46.109  30.167  23.953  1.00  0.00     0.049 H 
BRANCH  37  40
ATOM     40  N   UNL     1     -47.015  31.119  22.341  1.00  0.00    -0.311 NA
ATOM     41  H   UNL     1     -46.452  31.159  21.492  1.00  0.00     0.123 HD
BRANCH  40  42
ATOM     42  C   UNL     1     -47.865  29.928  22.311  1.00  0.00    -0.002 C 
ATOM     43  H   UNL     1     -47.255  29.019  22.367  1.00  0.00     0.043 H 
ATOM     44  H   UNL     1     -48.543  29.928  23.172  1.00  0.00     0.043 H 
BRANCH  42  45
ATOM     45  C   UNL     1     -48.667  29.901  21.006  1.00  0.00    -0.029 C 
ATOM     46  C   UNL     1     -48.922  31.263  20.305  1.00  0.00    -0.049 C 
ATOM     47  C   UNL     1     -50.204  29.795  21.179  1.00  0.00    -0.049 C 
ATOM     48  H   UNL     1     -48.272  29.134  20.327  1.00  0.00     0.032 H 
ATOM     49  C   UNL     1     -50.275  31.328  21.037  1.00  0.00    -0.053 C 
ATOM     50  H   UNL     1     -49.019  31.179  19.216  1.00  0.00     0.027 H 
ATOM     51  H   UNL     1     -48.224  32.073  20.534  1.00  0.00     0.027 H 
ATOM     52  H   UNL     1     -50.563  29.391  22.131  1.00  0.00     0.027 H 
ATOM     53  H   UNL     1     -50.700  29.258  20.361  1.00  0.00     0.027 H 
ATOM     54  H   UNL     1     -51.114  31.711  20.451  1.00  0.00     0.027 H 
ATOM     55  H   UNL     1     -50.236  31.862  21.993  1.00  0.00     0.027 H 
ENDBRANCH  42  45
ENDBRANCH  40  42
ENDBRANCH  37  40
ENDBRANCH   5  37
TORSDOF 7
ENDMDL
MODEL 3
REMARK VINA RESULT:     -10.0      1.465      2.308
REMARK SMILES c1cc(-c2cn(Cc3cc4[nH]c(CNCC5CCC5)cc4cn3)nn2)c2cn[nH]c2c1
REMARK SMILES IDX 8 1 9 2 10 3 11 4 12 5 20 6 21 7 22 8 23 9 7 14 6 17 4 18
REMARK SMILES IDX 5 19 25 20 24 22 3 23 1 24 2 25 31 26 30 29 26 31 29 32
REMARK SMILES IDX 27 33 28 34 13 37 14 40 15 42 16 45 17 46 19 47 18 49
REMARK H PARENT 9 10 11 11 20 12 22 13 7 15 7 16 5 21 1 27 2 28 31 30 29 35
REMARK H PARENT 27 36 13 38 13 39 14 41 15 43 15 44 16 48 17 50 17 51 19 52
REMARK H PARENT 19 53 18 54 18 55
REMARK Flexibility Score: inf
ROOT
ATOM      1  C   UNL     1     -46.912  35.403  28.308  1.00  0.00     0.064 A 
ATOM      2  C   UNL     1     -46.208  34.330  27.759  1.00  0.00    -0.014 A 
ATOM      3  C   UNL     1     -46.891  33.586  26.798  1.00  0.00     0.049 A 
ATOM      4  N   UNL     1     -46.502  32.478  26.084  1.00  0.00    -0.357 N 
ATOM      5  C   UNL     1     -47.506  32.080  25.232  1.00  0.00     0.030 A 
ATOM      6  C   UNL     1     -48.567  32.944  25.422  1.00  0.00    -0.031 A 
ATOM      7  C   UNL     1     -48.190  33.898  26.407  1.00  0.00     0.018 A 
ATOM      8  C   UNL     1     -48.823  34.992  27.005  1.00  0.00     0.037 A 
ATOM      9  N   UNL     1     -48.181  35.731  27.945  1.00  0.00    -0.259 NA
ATOM     10  H   UNL     1     -45.200  34.081  28.070  1.00  0.00     0.067 H 
ATOM     11  H   UNL     1     -45.600  32.026  26.169  1.00  0.00     0.166 HD
ATOM     12  H   UNL     1     -49.517  32.893  24.905  1.00  0.00     0.065 H 
ATOM     13  H   UNL     1     -49.832  35.298  26.755  1.00  0.00     0.085 H 
ENDROOT
BRANCH   1  14
ATOM     14  C   UNL     1     -46.273  36.263  29.367  1.00  0.00     0.085 C 
ATOM     15  H   UNL     1     -45.298  35.860  29.666  1.00  0.00     0.058 H 
ATOM     16  H   UNL     1     -46.906  36.313  30.261  1.00  0.00     0.058 H 
BRANCH  14  17
ATOM     17  N   UNL     1     -46.053  37.606  28.873  1.00  0.00    -0.246 N 
ATOM     18  C   UNL     1     -45.245  39.436  28.062  1.00  0.00     0.113 A 
ATOM     19  C   UNL     1     -44.892  38.150  28.403  1.00  0.00     0.054 A 
ATOM     20  N   UNL     1     -46.567  39.636  28.373  1.00  0.00    -0.130 NA
ATOM     21  H   UNL     1     -43.969  37.592  28.360  1.00  0.00     0.086 H 
ATOM     22  N   UNL     1     -47.055  38.505  28.866  1.00  0.00    -0.066 NA
BRANCH  18  23
ATOM     23  C   UNL     1     -44.388  40.464  27.520  1.00  0.00     0.015 A 
ATOM     24  C   UNL     1     -43.874  42.044  25.729  1.00  0.00    -0.059 A 
ATOM     25  C   UNL     1     -44.681  41.042  26.271  1.00  0.00    -0.052 A 
ATOM     26  C   UNL     1     -42.743  42.502  26.409  1.00  0.00    -0.036 A 
ATOM     27  H   UNL     1     -44.131  42.474  24.764  1.00  0.00     0.062 H 
ATOM     28  H   UNL     1     -45.556  40.709  25.713  1.00  0.00     0.063 H 
ATOM     29  C   UNL     1     -42.452  41.906  27.640  1.00  0.00     0.066 A 
ATOM     30  H   UNL     1     -42.115  43.279  25.987  1.00  0.00     0.065 H 
ATOM     31  C   UNL     1     -43.235  40.902  28.209  1.00  0.00     0.029 A 
ATOM     32  N   UNL     1     -41.426  42.116  28.523  1.00  0.00    -0.278 N 
ATOM     33  C   UNL     1     -42.556  40.583  29.410  1.00  0.00     0.057 A 
ATOM     34  N   UNL     1     -41.463  41.327  29.609  1.00  0.00    -0.183 NA
ATOM     35  H   UNL     1     -40.663  42.779  28.438  1.00  0.00     0.190 HD
ATOM     36  H   UNL     1     -42.808  39.835  30.149  1.00  0.00     0.087 H 
ENDBRANCH  18  23
ENDBRANCH  14  17
ENDBRANCH   1  14
BRANCH   5  37
ATOM     37  C   UNL     1     -47.355  30.901  24.333  1.00  0.00     0.036 C 
ATOM     38  H   UNL     1     -47.951  31.013  23.420  1.00  0.00     0.049 H 
ATOM     39  H   UNL     1     -46.309  30.845  24.007  1.00  0.00     0.049 H 
BRANCH  37  40
ATOM     40  N   UNL     1     -47.683  29.657  25.020  1.00  0.00    -0.311 NA
ATOM     41  H   UNL     1     -48.393  29.848  25.726  1.00  0.00     0.123 HD
BRANCH  40  42
ATOM     42  C   UNL     1     -48.157  28.606  24.118  1.00  0.00    -0.002 C 
ATOM     43  H   UNL     1     -49.137  28.869  23.703  1.00  0.00     0.043 H 
ATOM     44  H   UNL     1     -47.460  28.488  23.280  1.00  0.00     0.043 H 
BRANCH  42  45
ATOM     45  C   UNL     1     -48.287  27.288  24.888  1.00  0.00    -0.029 C 
ATOM     46  C   UNL     1     -49.587  26.468  24.670  1.00  0.00    -0.049 C 
ATOM     47  C   UNL     1     -48.722  27.431  26.369  1.00  0.00    -0.049 C 
ATOM     48  H   UNL     1     -47.374  26.687  24.779  1.00  0.00     0.032 H 
ATOM     49  C   UNL     1     -50.170  27.158  25.919  1.00  0.00    -0.053 C 
ATOM     50  H   UNL     1     -49.446  25.388  24.796  1.00  0.00     0.027 H 
ATOM     51  H   UNL     1     -50.132  26.644  23.739  1.00  0.00     0.027 H 
ATOM     52  H   UNL     1     -48.549  28.404  26.839  1.00  0.00     0.027 H 
ATOM     53  H   UNL     1     -48.314  26.649  27.022  1.00  0.00     0.027 H 
ATOM     54  H   UNL     1     -50.760  26.520  26.581  1.00  0.00     0.027 H 
ATOM     55  H   UNL     1     -50.741  28.065  25.696  1.00  0.00     0.027 H 
ENDBRANCH  42  45
ENDBRANCH  40  42
ENDBRANCH  37  40
ENDBRANCH   5  37
TORSDOF 7
ENDMDL
MODEL 4
REMARK VINA RESULT:      -9.6      1.918      2.866
REMARK SMILES c1cc(-c2cn(Cc3cc4[nH]c(CNCC5CCC5)cc4cn3)nn2)c2cn[nH]c2c1
REMARK SMILES IDX 8 1 9 2 10 3 11 4 12 5 20 6 21 7 22 8 23 9 7 14 6 17 4 18
REMARK SMILES IDX 5 19 25 20 24 22 3 23 1 24 2 25 31 26 30 29 26 31 29 32
REMARK SMILES IDX 27 33 28 34 13 37 14 40 15 42 16 45 17 46 19 47 18 49
REMARK H PARENT 9 10 11 11 20 12 22 13 7 15 7 16 5 21 1 27 2 28 31 30 29 35
REMARK H PARENT 27 36 13 38 13 39 14 41 15 43 15 44 16 48 17 50 17 51 19 52
REMARK H PARENT 19 53 18 54 18 55
REMARK Flexibility Score: inf
ROOT
ATOM      1  C   UNL     1     -46.513  36.944  28.413  1.00  0.00     0.064 A 
ATOM      2  C   UNL     1     -45.654  36.056  27.764  1.00  0.00    -0.014 A 
ATOM      3  C   UNL     1     -46.271  35.061  27.007  1.00  0.00     0.049 A 
ATOM      4  N   UNL     1     -45.730  34.037  26.267  1.00  0.00    -0.357 N 
ATOM      5  C   UNL     1     -46.726  33.297  25.673  1.00  0.00     0.030 A 
ATOM      6  C   UNL     1     -47.931  33.852  26.060  1.00  0.00    -0.031 A 
ATOM      7  C   UNL     1     -47.656  34.965  26.900  1.00  0.00     0.018 A 
ATOM      8  C   UNL     1     -48.444  35.899  27.580  1.00  0.00     0.037 A 
ATOM      9  N   UNL     1     -47.868  36.875  28.327  1.00  0.00    -0.259 NA
ATOM     10  H   UNL     1     -44.576  36.125  27.854  1.00  0.00     0.067 H 
ATOM     11  H   UNL     1     -44.739  33.860  26.169  1.00  0.00     0.166 HD
ATOM     12  H   UNL     1     -48.909  33.491  25.768  1.00  0.00     0.065 H 
ATOM     13  H   UNL     1     -49.528  35.890  27.547  1.00  0.00     0.085 H 
ENDROOT
BRANCH   1  14
ATOM     14  C   UNL     1     -45.950  38.047  29.272  1.00  0.00     0.085 C 
ATOM     15  H   UNL     1     -45.048  37.715  29.799  1.00  0.00     0.058 H 
ATOM     16  H   UNL     1     -46.682  38.366  30.024  1.00  0.00     0.058 H 
BRANCH  14  17
ATOM     17  N   UNL     1     -45.581  39.189  28.462  1.00  0.00    -0.246 N 
ATOM     18  C   UNL     1     -44.555  40.715  27.333  1.00  0.00     0.113 A 
ATOM     19  C   UNL     1     -44.330  39.594  28.098  1.00  0.00     0.054 A 
ATOM     20  N   UNL     1     -45.903  40.972  27.299  1.00  0.00    -0.130 NA
ATOM     21  H   UNL     1     -43.440  39.066  28.407  1.00  0.00     0.086 H 
ATOM     22  N   UNL     1     -46.525  40.027  27.991  1.00  0.00    -0.066 NA
BRANCH  18  23
ATOM     23  C   UNL     1     -43.566  41.556  26.698  1.00  0.00     0.015 A 
ATOM     24  C   UNL     1     -41.236  42.250  26.463  1.00  0.00    -0.059 A 
ATOM     25  C   UNL     1     -42.211  41.455  27.067  1.00  0.00    -0.052 A 
ATOM     26  C   UNL     1     -41.574  43.178  25.475  1.00  0.00    -0.036 A 
ATOM     27  H   UNL     1     -40.197  42.144  26.767  1.00  0.00     0.062 H 
ATOM     28  H   UNL     1     -41.912  40.742  27.835  1.00  0.00     0.063 H 
ATOM     29  C   UNL     1     -42.926  43.281  25.132  1.00  0.00     0.066 A 
ATOM     30  H   UNL     1     -40.815  43.796  25.007  1.00  0.00     0.065 H 
ATOM     31  C   UNL     1     -43.927  42.504  25.716  1.00  0.00     0.029 A 
ATOM     32  N   UNL     1     -43.568  44.090  24.232  1.00  0.00    -0.278 N 
ATOM     33  C   UNL     1     -45.115  42.966  25.100  1.00  0.00     0.057 A 
ATOM     34  N   UNL     1     -44.899  43.921  24.189  1.00  0.00    -0.183 NA
ATOM     35  H   UNL     1     -43.153  44.786  23.622  1.00  0.00     0.190 HD
ATOM     36  H   UNL     1     -46.134  42.650  25.280  1.00  0.00     0.087 H 
ENDBRANCH  18  23
ENDBRANCH  14  17
ENDBRANCH   1  14
BRANCH   5  37
ATOM     37  C   UNL     1     -46.424  32.121  24.809  1.00  0.00     0.036 C 
ATOM     38  H   UNL     1     -45.459  32.232  24.301  1.00  0.00     0.049 H 
ATOM     39  H   UNL     1     -46.329  31.235  25.449  1.00  0.00     0.049 H 
BRANCH  37  40
ATOM     40  N   UNL     1     -47.493  31.873  23.848  1.00  0.00    -0.311 NA
ATOM     41  H   UNL     1     -47.080  31.737  22.926  1.00  0.00     0.123 HD
BRANCH  40  42
ATOM     42  C   UNL     1     -48.322  30.717  24.190  1.00  0.00    -0.002 C 
ATOM     43  H   UNL     1     -48.034  30.313  25.168  1.00  0.00     0.043 H 
ATOM     44  H   UNL     1     -49.375  31.014  24.249  1.00  0.00     0.043 H 
BRANCH  42  45
ATOM     45  C   UNL     1     -48.140  29.622  23.134  1.00  0.00    -0.029 C 
ATOM     46  C   UNL     1     -48.003  28.163  23.645  1.00  0.00    -0.049 C 
ATOM     47  C   UNL     1     -46.699  29.477  22.579  1.00  0.00    -0.049 C 
ATOM     48  H   UNL     1     -48.884  29.731  22.334  1.00  0.00     0.032 H 
ATOM     49  C   UNL     1     -46.474  28.345  23.600  1.00  0.00    -0.053 C 
ATOM     50  H   UNL     1     -48.374  27.416  22.933  1.00  0.00     0.027 H 
ATOM     51  H   UNL     1     -48.421  27.944  24.632  1.00  0.00     0.027 H 
ATOM     52  H   UNL     1     -46.044  30.346  22.684  1.00  0.00     0.027 H 
ATOM     53  H   UNL     1     -46.665  29.136  21.536  1.00  0.00     0.027 H 
ATOM     54  H   UNL     1     -45.904  27.486  23.237  1.00  0.00     0.027 H 
ATOM     55  H   UNL     1     -46.040  28.685  24.547  1.00  0.00     0.027 H 
ENDBRANCH  42  45
ENDBRANCH  40  42
ENDBRANCH  37  40
ENDBRANCH   5  37
TORSDOF 7
ENDMDL
MODEL 5
REMARK VINA RESULT:      -9.4      1.895     11.141
REMARK SMILES c1cc(-c2cn(Cc3cc4[nH]c(CNCC5CCC5)cc4cn3)nn2)c2cn[nH]c2c1
REMARK SMILES IDX 8 1 9 2 10 3 11 4 12 5 20 6 21 7 22 8 23 9 7 14 6 17 4 18
REMARK SMILES IDX 5 19 25 20 24 22 3 23 1 24 2 25 31 26 30 29 26 31 29 32
REMARK SMILES IDX 27 33 28 34 13 37 14 40 15 42 16 45 17 46 19 47 18 49
REMARK H PARENT 9 10 11 11 20 12 22 13 7 15 7 16 5 21 1 27 2 28 31 30 29 35
REMARK H PARENT 27 36 13 38 13 39 14 41 15 43 15 44 16 48 17 50 17 51 19 52
REMARK H PARENT 19 53 18 54 18 55
REMARK Flexibility Score: inf
ROOT
ATOM      1  C   UNL     1     -47.414  36.396  27.686  1.00  0.00     0.064 A 
ATOM      2  C   UNL     1     -46.928  37.536  27.043  1.00  0.00    -0.014 A 
ATOM      3  C   UNL     1     -45.908  38.216  27.706  1.00  0.00     0.049 A 
ATOM      4  N   UNL     1     -45.229  39.361  27.363  1.00  0.00    -0.357 N 
ATOM      5  C   UNL     1     -44.289  39.665  28.320  1.00  0.00     0.030 A 
ATOM      6  C   UNL     1     -44.385  38.700  29.305  1.00  0.00    -0.031 A 
ATOM      7  C   UNL     1     -45.401  37.782  28.928  1.00  0.00     0.018 A 
ATOM      8  C   UNL     1     -45.942  36.627  29.502  1.00  0.00     0.037 A 
ATOM      9  N   UNL     1     -46.939  35.948  28.879  1.00  0.00    -0.259 NA
ATOM     10  H   UNL     1     -47.329  37.879  26.096  1.00  0.00     0.067 H 
ATOM     11  H   UNL     1     -45.395  39.898  26.522  1.00  0.00     0.166 HD
ATOM     12  H   UNL     1     -43.784  38.663  30.205  1.00  0.00     0.065 H 
ATOM     13  H   UNL     1     -45.603  36.226  30.450  1.00  0.00     0.085 H 
ENDROOT
BRANCH   1  14
ATOM     14  C   UNL     1     -48.529  35.595  27.064  1.00  0.00     0.085 C 
ATOM     15  H   UNL     1     -49.103  36.204  26.356  1.00  0.00     0.058 H 
ATOM     16  H   UNL     1     -49.220  35.230  27.833  1.00  0.00     0.058 H 
BRANCH  14  17
ATOM     17  N   UNL     1     -48.000  34.463  26.332  1.00  0.00    -0.246 N 
ATOM     18  C   UNL     1     -47.666  32.566  25.359  1.00  0.00     0.113 A 
ATOM     19  C   UNL     1     -48.593  33.255  26.106  1.00  0.00     0.054 A 
ATOM     20  N   UNL     1     -46.548  33.347  25.200  1.00  0.00    -0.130 NA
ATOM     21  H   UNL     1     -49.576  33.015  26.484  1.00  0.00     0.086 H 
ATOM     22  N   UNL     1     -46.765  34.512  25.797  1.00  0.00    -0.066 NA
BRANCH  18  23
ATOM     23  C   UNL     1     -47.776  31.218  24.852  1.00  0.00     0.015 A 
ATOM     24  C   UNL     1     -48.669  28.956  25.073  1.00  0.00    -0.059 A 
ATOM     25  C   UNL     1     -48.541  30.262  25.547  1.00  0.00    -0.052 A 
ATOM     26  C   UNL     1     -48.037  28.551  23.895  1.00  0.00    -0.036 A 
ATOM     27  H   UNL     1     -49.272  28.243  25.631  1.00  0.00     0.062 H 
ATOM     28  H   UNL     1     -49.048  30.543  26.469  1.00  0.00     0.063 H 
ATOM     29  C   UNL     1     -47.265  29.506  23.225  1.00  0.00     0.066 A 
ATOM     30  H   UNL     1     -48.136  27.535  23.529  1.00  0.00     0.065 H 
ATOM     31  C   UNL     1     -47.113  30.819  23.671  1.00  0.00     0.029 A 
ATOM     32  N   UNL     1     -46.522  29.419  22.078  1.00  0.00    -0.278 N 
ATOM     33  C   UNL     1     -46.238  31.399  22.720  1.00  0.00     0.057 A 
ATOM     34  N   UNL     1     -45.886  30.554  21.745  1.00  0.00    -0.183 NA
ATOM     35  H   UNL     1     -46.400  28.609  21.480  1.00  0.00     0.190 HD
ATOM     36  H   UNL     1     -45.836  32.403  22.699  1.00  0.00     0.087 H 
ENDBRANCH  18  23
ENDBRANCH  14  17
ENDBRANCH   1  14
BRANCH   5  37
ATOM     37  C   UNL     1     -43.405  40.859  28.204  1.00  0.00     0.036 C 
ATOM     38  H   UNL     1     -43.866  41.746  28.654  1.00  0.00     0.049 H 
ATOM     39  H   UNL     1     -42.490  40.671  28.778  1.00  0.00     0.049 H 
BRANCH  37  40
ATOM     40  N   UNL     1     -43.027  41.115  26.819  1.00  0.00    -0.311 NA
ATOM     41  H   UNL     1     -43.818  40.891  26.216  1.00  0.00     0.123 HD
BRANCH  40  42
ATOM     42  C   UNL     1     -42.603  42.496  26.581  1.00  0.00    -0.002 C 
ATOM     43  H   UNL     1     -42.438  43.016  27.532  1.00  0.00     0.043 H 
ATOM     44  H   UNL     1     -41.658  42.508  26.026  1.00  0.00     0.043 H 
BRANCH  42  45
ATOM     45  C   UNL     1     -43.688  43.239  25.796  1.00  0.00    -0.029 C 
ATOM     46  C   UNL     1     -44.084  42.657  24.413  1.00  0.00    -0.049 C 
ATOM     47  C   UNL     1     -43.203  44.501  25.036  1.00  0.00    -0.049 C 
ATOM     48  H   UNL     1     -44.553  43.449  26.440  1.00  0.00     0.032 H 
ATOM     49  C   UNL     1     -43.073  43.628  23.773  1.00  0.00    -0.053 C 
ATOM     50  H   UNL     1     -45.124  42.865  24.135  1.00  0.00     0.027 H 
ATOM     51  H   UNL     1     -43.883  41.595  24.249  1.00  0.00     0.027 H 
ATOM     52  H   UNL     1     -42.276  44.960  25.390  1.00  0.00     0.027 H 
ATOM     53  H   UNL     1     -43.970  45.280  24.950  1.00  0.00     0.027 H 
ATOM     54  H   UNL     1     -43.392  44.096  22.838  1.00  0.00     0.027 H 
ATOM     55  H   UNL     1     -42.075  43.199  23.633  1.00  0.00     0.027 H 
ENDBRANCH  42  45
ENDBRANCH  40  42
ENDBRANCH  37  40
ENDBRANCH   5  37
TORSDOF 7
ENDMDL
MODEL 6
REMARK VINA RESULT:      -9.4      2.254      3.257
REMARK SMILES c1cc(-c2cn(Cc3cc4[nH]c(CNCC5CCC5)cc4cn3)nn2)c2cn[nH]c2c1
REMARK SMILES IDX 8 1 9 2 10 3 11 4 12 5 20 6 21 7 22 8 23 9 7 14 6 17 4 18
REMARK SMILES IDX 5 19 25 20 24 22 3 23 1 24 2 25 31 26 30 29 26 31 29 32
REMARK SMILES IDX 27 33 28 34 13 37 14 40 15 42 16 45 17 46 19 47 18 49
REMARK H PARENT 9 10 11 11 20 12 22 13 7 15 7 16 5 21 1 27 2 28 31 30 29 35
REMARK H PARENT 27 36 13 38 13 39 14 41 15 43 15 44 16 48 17 50 17 51 19 52
REMARK H PARENT 19 53 18 54 18 55
REMARK Flexibility Score: inf
ROOT
ATOM      1  C   UNL     1     -47.473  37.275  28.064  1.00  0.00     0.064 A 
ATOM      2  C   UNL     1     -47.520  36.738  26.777  1.00  0.00    -0.014 A 
ATOM      3  C   UNL     1     -47.035  35.438  26.645  1.00  0.00     0.049 A 
ATOM      4  N   UNL     1     -46.925  34.633  25.535  1.00  0.00    -0.357 N 
ATOM      5  C   UNL     1     -46.393  33.413  25.879  1.00  0.00     0.030 A 
ATOM      6  C   UNL     1     -46.140  33.447  27.238  1.00  0.00    -0.031 A 
ATOM      7  C   UNL     1     -46.542  34.719  27.730  1.00  0.00     0.018 A 
ATOM      8  C   UNL     1     -46.534  35.330  28.988  1.00  0.00     0.037 A 
ATOM      9  N   UNL     1     -46.997  36.597  29.142  1.00  0.00    -0.259 NA
ATOM     10  H   UNL     1     -47.895  37.301  25.929  1.00  0.00     0.067 H 
ATOM     11  H   UNL     1     -47.204  34.902  24.601  1.00  0.00     0.166 HD
ATOM     12  H   UNL     1     -45.709  32.639  27.816  1.00  0.00     0.065 H 
ATOM     13  H   UNL     1     -46.166  34.837  29.880  1.00  0.00     0.085 H 
ENDROOT
BRANCH   1  14
ATOM     14  C   UNL     1     -47.957  38.680  28.315  1.00  0.00     0.085 C 
ATOM     15  H   UNL     1     -47.877  38.940  29.377  1.00  0.00     0.058 H 
ATOM     16  H   UNL     1     -49.007  38.787  28.020  1.00  0.00     0.058 H 
BRANCH  14  17
ATOM     17  N   UNL     1     -47.161  39.636  27.575  1.00  0.00    -0.246 N 
ATOM     18  C   UNL     1     -45.596  40.888  26.773  1.00  0.00     0.113 A 
ATOM     19  C   UNL     1     -45.835  39.925  27.726  1.00  0.00     0.054 A 
ATOM     20  N   UNL     1     -46.770  41.176  26.122  1.00  0.00    -0.130 NA
ATOM     21  H   UNL     1     -45.220  39.437  28.467  1.00  0.00     0.086 H 
ATOM     22  N   UNL     1     -47.723  40.398  26.618  1.00  0.00    -0.066 NA
BRANCH  18  23
ATOM     23  C   UNL     1     -44.347  41.562  26.503  1.00  0.00     0.015 A 
ATOM     24  C   UNL     1     -42.989  42.960  25.032  1.00  0.00    -0.059 A 
ATOM     25  C   UNL     1     -44.182  42.293  25.312  1.00  0.00    -0.052 A 
ATOM     26  C   UNL     1     -41.914  42.918  25.923  1.00  0.00    -0.036 A 
ATOM     27  H   UNL     1     -42.895  43.522  24.105  1.00  0.00     0.062 H 
ATOM     28  H   UNL     1     -45.000  42.347  24.593  1.00  0.00     0.063 H 
ATOM     29  C   UNL     1     -42.085  42.172  27.094  1.00  0.00     0.066 A 
ATOM     30  H   UNL     1     -40.986  43.435  25.704  1.00  0.00     0.065 H 
ATOM     31  C   UNL     1     -43.263  41.492  27.404  1.00  0.00     0.029 A 
ATOM     32  N   UNL     1     -41.233  41.925  28.137  1.00  0.00    -0.278 N 
ATOM     33  C   UNL     1     -42.972  40.861  28.639  1.00  0.00     0.057 A 
ATOM     34  N   UNL     1     -41.745  41.132  29.092  1.00  0.00    -0.183 NA
ATOM     35  H   UNL     1     -40.283  42.263  28.252  1.00  0.00     0.190 HD
ATOM     36  H   UNL     1     -43.604  40.209  29.227  1.00  0.00     0.087 H 
ENDBRANCH  18  23
ENDBRANCH  14  17
ENDBRANCH   1  14
BRANCH   5  37
ATOM     37  C   UNL     1     -46.163  32.341  24.870  1.00  0.00     0.036 C 
ATOM     38  H   UNL     1     -46.138  32.747  23.852  1.00  0.00     0.049 H 
ATOM     39  H   UNL     1     -45.173  31.904  25.046  1.00  0.00     0.049 H 
BRANCH  37  40
ATOM     40  N   UNL     1     -47.155  31.277  24.981  1.00  0.00    -0.311 NA
ATOM     41  H   UNL     1     -47.334  31.097  25.968  1.00  0.00     0.123 HD
BRANCH  40  42
ATOM     42  C   UNL     1     -48.413  31.585  24.300  1.00  0.00    -0.002 C 
ATOM     43  H   UNL     1     -49.210  31.769  25.031  1.00  0.00     0.043 H 
ATOM     44  H   UNL     1     -48.300  32.491  23.694  1.00  0.00     0.043 H 
BRANCH  42  45
ATOM     45  C   UNL     1     -48.821  30.403  23.415  1.00  0.00    -0.029 C 
ATOM     46  C   UNL     1     -47.679  29.608  22.727  1.00  0.00    -0.049 C 
ATOM     47  C   UNL     1     -49.305  30.783  21.991  1.00  0.00    -0.049 C 
ATOM     48  H   UNL     1     -49.540  29.760  23.940  1.00  0.00     0.032 H 
ATOM     49  C   UNL     1     -47.877  30.498  21.485  1.00  0.00    -0.053 C 
ATOM     50  H   UNL     1     -47.928  28.555  22.552  1.00  0.00     0.027 H 
ATOM     51  H   UNL     1     -46.691  29.662  23.191  1.00  0.00     0.027 H 
ATOM     52  H   UNL     1     -49.659  31.808  21.852  1.00  0.00     0.027 H 
ATOM     53  H   UNL     1     -50.056  30.093  21.587  1.00  0.00     0.027 H 
ATOM     54  H   UNL     1     -47.809  29.989  20.521  1.00  0.00     0.027 H 
ATOM     55  H   UNL     1     -47.230  31.382  21.468  1.00  0.00     0.027 H 
ENDBRANCH  42  45
ENDBRANCH  40  42
ENDBRANCH  37  40
ENDBRANCH   5  37
TORSDOF 7
ENDMDL
MODEL 7
REMARK VINA RESULT:      -9.4      2.939     11.731
REMARK SMILES c1cc(-c2cn(Cc3cc4[nH]c(CNCC5CCC5)cc4cn3)nn2)c2cn[nH]c2c1
REMARK SMILES IDX 8 1 9 2 10 3 11 4 12 5 20 6 21 7 22 8 23 9 7 14 6 17 4 18
REMARK SMILES IDX 5 19 25 20 24 22 3 23 1 24 2 25 31 26 30 29 26 31 29 32
REMARK SMILES IDX 27 33 28 34 13 37 14 40 15 42 16 45 17 46 19 47 18 49
REMARK H PARENT 9 10 11 11 20 12 22 13 7 15 7 16 5 21 1 27 2 28 31 30 29 35
REMARK H PARENT 27 36 13 38 13 39 14 41 15 43 15 44 16 48 17 50 17 51 19 52
REMARK H PARENT 19 53 18 54 18 55
REMARK Flexibility Score: inf
ROOT
ATOM      1  C   UNL     1     -47.312  32.296  24.279  1.00  0.00     0.064 A 
ATOM      2  C   UNL     1     -46.183  32.933  24.797  1.00  0.00    -0.014 A 
ATOM      3  C   UNL     1     -46.404  33.752  25.903  1.00  0.00     0.049 A 
ATOM      4  N   UNL     1     -45.529  34.521  26.634  1.00  0.00    -0.357 N 
ATOM      5  C   UNL     1     -46.192  35.162  27.654  1.00  0.00     0.030 A 
ATOM      6  C   UNL     1     -47.525  34.806  27.560  1.00  0.00    -0.031 A 
ATOM      7  C   UNL     1     -47.669  33.917  26.460  1.00  0.00     0.018 A 
ATOM      8  C   UNL     1     -48.747  33.239  25.882  1.00  0.00     0.037 A 
ATOM      9  N   UNL     1     -48.559  32.439  24.802  1.00  0.00    -0.259 NA
ATOM     10  H   UNL     1     -45.199  32.811  24.357  1.00  0.00     0.067 H 
ATOM     11  H   UNL     1     -44.538  34.597  26.448  1.00  0.00     0.166 HD
ATOM     12  H   UNL     1     -48.313  35.153  28.216  1.00  0.00     0.065 H 
ATOM     13  H   UNL     1     -49.761  33.317  26.257  1.00  0.00     0.085 H 
ENDROOT
BRANCH   1  14
ATOM     14  C   UNL     1     -47.188  31.401  23.073  1.00  0.00     0.085 C 
ATOM     15  H   UNL     1     -46.288  31.641  22.495  1.00  0.00     0.058 H 
ATOM     16  H   UNL     1     -48.055  31.517  22.412  1.00  0.00     0.058 H 
BRANCH  14  17
ATOM     17  N   UNL     1     -47.087  30.013  23.474  1.00  0.00    -0.246 N 
ATOM     18  C   UNL     1     -47.316  28.073  24.390  1.00  0.00     0.113 A 
ATOM     19  C   UNL     1     -47.808  29.357  24.429  1.00  0.00     0.054 A 
ATOM     20  N   UNL     1     -46.304  28.007  23.466  1.00  0.00    -0.130 NA
ATOM     21  H   UNL     1     -48.568  29.849  25.017  1.00  0.00     0.086 H 
ATOM     22  N   UNL     1     -46.174  29.203  22.905  1.00  0.00    -0.066 NA
BRANCH  18  23
ATOM     23  C   UNL     1     -47.721  26.954  25.211  1.00  0.00     0.015 A 
ATOM     24  C   UNL     1     -47.120  24.994  26.537  1.00  0.00    -0.059 A 
ATOM     25  C   UNL     1     -46.755  26.076  25.734  1.00  0.00    -0.052 A 
ATOM     26  C   UNL     1     -48.460  24.743  26.841  1.00  0.00    -0.036 A 
ATOM     27  H   UNL     1     -46.348  24.336  26.931  1.00  0.00     0.062 H 
ATOM     28  H   UNL     1     -45.700  26.241  25.517  1.00  0.00     0.063 H 
ATOM     29  C   UNL     1     -49.411  25.613  26.299  1.00  0.00     0.066 A 
ATOM     30  H   UNL     1     -48.743  23.901  27.464  1.00  0.00     0.065 H 
ATOM     31  C   UNL     1     -49.082  26.702  25.492  1.00  0.00     0.029 A 
ATOM     32  N   UNL     1     -50.777  25.626  26.394  1.00  0.00    -0.278 N 
ATOM     33  C   UNL     1     -50.338  27.262  25.153  1.00  0.00     0.057 A 
ATOM     34  N   UNL     1     -51.369  26.618  25.708  1.00  0.00    -0.183 NA
ATOM     35  H   UNL     1     -51.368  24.979  26.906  1.00  0.00     0.190 HD
ATOM     36  H   UNL     1     -50.546  28.113  24.517  1.00  0.00     0.087 H 
ENDBRANCH  18  23
ENDBRANCH  14  17
ENDBRANCH   1  14
BRANCH   5  37
ATOM     37  C   UNL     1     -45.487  36.064  28.607  1.00  0.00     0.036 C 
ATOM     38  H   UNL     1     -45.439  35.629  29.612  1.00  0.00     0.049 H 
ATOM     39  H   UNL     1     -44.447  36.174  28.276  1.00  0.00     0.049 H 
BRANCH  37  40
ATOM     40  N   UNL     1     -46.095  37.389  28.642  1.00  0.00    -0.311 NA
ATOM     41  H   UNL     1     -45.775  37.875  29.479  1.00  0.00     0.123 HD
BRANCH  40  42
ATOM     42  C   UNL     1     -45.793  38.195  27.459  1.00  0.00    -0.002 C 
ATOM     43  H   UNL     1     -45.156  39.047  27.726  1.00  0.00     0.043 H 
ATOM     44  H   UNL     1     -45.251  37.592  26.721  1.00  0.00     0.043 H 
BRANCH  42  45
ATOM     45  C   UNL     1     -47.096  38.727  26.853  1.00  0.00    -0.029 C 
ATOM     46  C   UNL     1     -47.232  40.267  26.710  1.00  0.00    -0.049 C 
ATOM     47  C   UNL     1     -48.298  38.793  27.831  1.00  0.00    -0.049 C 
ATOM     48  H   UNL     1     -47.341  38.185  25.930  1.00  0.00     0.032 H 
ATOM     49  C   UNL     1     -47.958  40.277  28.069  1.00  0.00    -0.053 C 
ATOM     50  H   UNL     1     -47.872  40.571  25.872  1.00  0.00     0.027 H 
ATOM     51  H   UNL     1     -46.304  40.843  26.669  1.00  0.00     0.027 H 
ATOM     52  H   UNL     1     -48.247  38.149  28.713  1.00  0.00     0.027 H 
ATOM     53  H   UNL     1     -49.268  38.641  27.341  1.00  0.00     0.027 H 
ATOM     54  H   UNL     1     -48.813  40.953  28.145  1.00  0.00     0.027 H 
ATOM     55  H   UNL     1     -47.293  40.446  28.924  1.00  0.00     0.027 H 
ENDBRANCH  42  45
ENDBRANCH  40  42
ENDBRANCH  37  40
ENDBRANCH   5  37
TORSDOF 7
ENDMDL
