MODEL 1
REMARK VINA RESULT:      -9.4      0.000      0.000
REMARK SMILES CNc1cc(N2CCC(O)(CNc3ccc(CN4CCC(C)(C)CC4)nc3)CC2)ncn1
REMARK SMILES IDX 11 1 9 4 6 5 7 6 29 7 8 8 28 11 5 18 3 19 4 20 32 21 31 23
REMARK SMILES IDX 30 24 2 26 1 28 10 32 12 34 13 36 14 37 27 38 15 39 26 41
REMARK SMILES IDX 16 43 17 45 18 48 19 49 25 50 20 51 24 54 21 57 22 62 23 66
REMARK H PARENT 11 2 11 3 7 9 7 10 29 12 29 13 8 14 8 15 28 16 28 17 4 22
REMARK H PARENT 31 25 2 27 1 29 1 30 1 31 10 33 12 35 14 40 27 42 15 44 17 46
REMARK H PARENT 17 47 19 52 19 53 25 55 25 56 20 58 20 59 24 60 24 61 22 63
REMARK H PARENT 22 64 22 65 23 67 23 68 23 69
REMARK Flexibility Score: inf
ROOT
ATOM      1  C   UNL     1     -45.796  36.396  27.803  1.00  0.00     0.044 C 
ATOM      2  H   UNL     1     -44.925  36.954  27.445  1.00  0.00     0.052 H 
ATOM      3  H   UNL     1     -45.462  35.399  28.118  1.00  0.00     0.052 H 
ENDROOT
BRANCH   1   4
ATOM      4  C   UNL     1     -46.456  37.117  29.018  1.00  0.00     0.085 C 
ATOM      5  N   UNL     1     -44.464  39.018  29.073  1.00  0.00    -0.356 N 
ATOM      6  C   UNL     1     -45.661  39.411  28.305  1.00  0.00     0.022 C 
ATOM      7  C   UNL     1     -44.714  38.417  30.385  1.00  0.00     0.022 C 
ATOM      8  C   UNL     1     -46.868  38.557  28.688  1.00  0.00    -0.005 C 
ATOM      9  H   UNL     1     -45.915  40.466  28.473  1.00  0.00     0.049 H 
ATOM     10  H   UNL     1     -45.466  39.282  27.234  1.00  0.00     0.049 H 
ATOM     11  C   UNL     1     -45.501  37.110  30.227  1.00  0.00    -0.005 C 
ATOM     12  H   UNL     1     -45.277  39.115  31.018  1.00  0.00     0.049 H 
ATOM     13  H   UNL     1     -43.781  38.174  30.910  1.00  0.00     0.049 H 
ATOM     14  H   UNL     1     -47.364  38.996  29.566  1.00  0.00     0.031 H 
ATOM     15  H   UNL     1     -47.626  38.592  27.897  1.00  0.00     0.031 H 
ATOM     16  H   UNL     1     -46.047  36.918  31.159  1.00  0.00     0.031 H 
ATOM     17  H   UNL     1     -44.795  36.275  30.136  1.00  0.00     0.031 H 
BRANCH   5  18
ATOM     18  C   UNL     1     -43.451  40.001  29.071  1.00  0.00     0.134 A 
ATOM     19  C   UNL     1     -42.355  41.853  28.066  1.00  0.00     0.131 A 
ATOM     20  C   UNL     1     -43.371  40.916  28.033  1.00  0.00     0.023 A 
ATOM     21  N   UNL     1     -41.472  41.910  29.068  1.00  0.00    -0.219 NA
ATOM     22  H   UNL     1     -44.076  40.903  27.215  1.00  0.00     0.070 H 
ATOM     23  C   UNL     1     -41.614  40.981  30.021  1.00  0.00     0.120 A 
ATOM     24  N   UNL     1     -42.551  40.024  30.068  1.00  0.00    -0.219 NA
ATOM     25  H   UNL     1     -40.900  41.005  30.836  1.00  0.00     0.106 H 
BRANCH  19  26
ATOM     26  N   UNL     1     -42.203  42.827  27.075  1.00  0.00    -0.373 N 
ATOM     27  H   UNL     1     -41.812  42.320  26.280  1.00  0.00     0.161 HD
BRANCH  26  28
ATOM     28  C   UNL     1     -43.430  43.519  26.715  1.00  0.00     0.005 C 
ATOM     29  H   UNL     1     -43.406  43.865  25.677  1.00  0.00     0.045 H 
ATOM     30  H   UNL     1     -43.545  44.397  27.358  1.00  0.00     0.045 H 
ATOM     31  H   UNL     1     -44.311  42.887  26.867  1.00  0.00     0.045 H 
ENDBRANCH  26  28
ENDBRANCH  19  26
ENDBRANCH   5  18
BRANCH   4  32
ATOM     32  O   UNL     1     -47.640  36.368  29.364  1.00  0.00    -0.388 OA
ATOM     33  H   UNL     1     -47.601  35.513  28.901  1.00  0.00     0.211 HD
ENDBRANCH   4  32
ENDBRANCH   1   4
BRANCH   1  34
ATOM     34  N   UNL     1     -46.786  36.234  26.729  1.00  0.00    -0.381 N 
ATOM     35  H   UNL     1     -47.618  36.787  26.949  1.00  0.00     0.160 HD
BRANCH  34  36
ATOM     36  C   UNL     1     -47.124  34.947  26.299  1.00  0.00     0.053 A 
ATOM     37  C   UNL     1     -46.366  34.200  25.400  1.00  0.00    -0.036 A 
ATOM     38  C   UNL     1     -48.362  34.395  26.644  1.00  0.00     0.050 A 
ATOM     39  C   UNL     1     -46.816  32.955  24.954  1.00  0.00    -0.037 A 
ATOM     40  H   UNL     1     -45.417  34.564  25.022  1.00  0.00     0.065 H 
ATOM     41  N   UNL     1     -48.834  33.190  26.236  1.00  0.00    -0.258 NA
ATOM     42  H   UNL     1     -49.044  34.939  27.293  1.00  0.00     0.086 H 
ATOM     43  C   UNL     1     -48.049  32.479  25.393  1.00  0.00     0.055 A 
ATOM     44  H   UNL     1     -46.221  32.373  24.258  1.00  0.00     0.064 H 
BRANCH  43  45
ATOM     45  C   UNL     1     -48.560  31.126  24.927  1.00  0.00     0.041 C 
ATOM     46  H   UNL     1     -47.840  30.384  25.295  1.00  0.00     0.050 H 
ATOM     47  H   UNL     1     -49.517  30.908  25.420  1.00  0.00     0.050 H 
BRANCH  45  48
ATOM     48  N   UNL     1     -48.694  31.000  23.462  1.00  0.00    -0.297 NA
ATOM     49  C   UNL     1     -50.078  31.173  23.016  1.00  0.00    -0.001 C 
ATOM     50  C   UNL     1     -48.138  29.717  23.004  1.00  0.00    -0.001 C 
ATOM     51  C   UNL     1     -50.132  31.307  21.485  1.00  0.00    -0.035 C 
ATOM     52  H   UNL     1     -50.701  30.331  23.345  1.00  0.00     0.043 H 
ATOM     53  H   UNL     1     -50.528  32.079  23.436  1.00  0.00     0.043 H 
ATOM     54  C   UNL     1     -48.728  29.218  21.676  1.00  0.00    -0.035 C 
ATOM     55  H   UNL     1     -47.054  29.837  22.894  1.00  0.00     0.043 H 
ATOM     56  H   UNL     1     -48.294  28.926  23.749  1.00  0.00     0.043 H 
ATOM     57  C   UNL     1     -49.156  30.362  20.736  1.00  0.00    -0.033 C 
ATOM     58  H   UNL     1     -51.168  31.115  21.176  1.00  0.00     0.029 H 
ATOM     59  H   UNL     1     -49.927  32.349  21.207  1.00  0.00     0.029 H 
ATOM     60  H   UNL     1     -49.605  28.594  21.898  1.00  0.00     0.029 H 
ATOM     61  H   UNL     1     -48.003  28.559  21.182  1.00  0.00     0.029 H 
BRANCH  57  62
ATOM     62  C   UNL     1     -47.920  31.148  20.253  1.00  0.00    -0.060 C 
ATOM     63  H   UNL     1     -48.193  32.167  19.954  1.00  0.00     0.024 H 
ATOM     64  H   UNL     1     -47.434  30.670  19.397  1.00  0.00     0.024 H 
ATOM     65  H   UNL     1     -47.170  31.229  21.049  1.00  0.00     0.024 H 
ENDBRANCH  57  62
BRANCH  57  66
ATOM     66  C   UNL     1     -49.852  29.771  19.497  1.00  0.00    -0.060 C 
ATOM     67  H   UNL     1     -50.916  29.592  19.689  1.00  0.00     0.024 H 
ATOM     68  H   UNL     1     -49.402  28.814  19.208  1.00  0.00     0.024 H 
ATOM     69  H   UNL     1     -49.776  30.447  18.639  1.00  0.00     0.024 H 
ENDBRANCH  57  66
ENDBRANCH  45  48
ENDBRANCH  43  45
ENDBRANCH  34  36
ENDBRANCH   1  34
TORSDOF 11
ENDMDL
MODEL 2
REMARK VINA RESULT:      -9.1      2.543      3.851
REMARK SMILES CNc1cc(N2CCC(O)(CNc3ccc(CN4CCC(C)(C)CC4)nc3)CC2)ncn1
REMARK SMILES IDX 11 1 9 4 6 5 7 6 29 7 8 8 28 11 5 18 3 19 4 20 32 21 31 23
REMARK SMILES IDX 30 24 2 26 1 28 10 32 12 34 13 36 14 37 27 38 15 39 26 41
REMARK SMILES IDX 16 43 17 45 18 48 19 49 25 50 20 51 24 54 21 57 22 62 23 66
REMARK H PARENT 11 2 11 3 7 9 7 10 29 12 29 13 8 14 8 15 28 16 28 17 4 22
REMARK H PARENT 31 25 2 27 1 29 1 30 1 31 10 33 12 35 14 40 27 42 15 44 17 46
REMARK H PARENT 17 47 19 52 19 53 25 55 25 56 20 58 20 59 24 60 24 61 22 63
REMARK H PARENT 22 64 22 65 23 67 23 68 23 69
REMARK Flexibility Score: inf
ROOT
ATOM      1  C   UNL     1     -47.131  35.937  26.387  1.00  0.00     0.044 C 
ATOM      2  H   UNL     1     -48.164  35.765  26.070  1.00  0.00     0.052 H 
ATOM      3  H   UNL     1     -46.719  36.761  25.789  1.00  0.00     0.052 H 
ENDROOT
BRANCH   1   4
ATOM      4  C   UNL     1     -47.071  36.328  27.895  1.00  0.00     0.085 C 
ATOM      5  N   UNL     1     -45.881  38.741  27.303  1.00  0.00    -0.356 N 
ATOM      6  C   UNL     1     -47.349  38.802  27.438  1.00  0.00     0.022 C 
ATOM      7  C   UNL     1     -45.173  37.997  28.347  1.00  0.00     0.022 C 
ATOM      8  C   UNL     1     -47.884  37.592  28.202  1.00  0.00    -0.005 C 
ATOM      9  H   UNL     1     -47.665  39.712  27.965  1.00  0.00     0.049 H 
ATOM     10  H   UNL     1     -47.807  38.818  26.443  1.00  0.00     0.049 H 
ATOM     11  C   UNL     1     -45.609  36.527  28.338  1.00  0.00    -0.005 C 
ATOM     12  H   UNL     1     -45.379  38.440  29.330  1.00  0.00     0.049 H 
ATOM     13  H   UNL     1     -44.086  38.015  28.198  1.00  0.00     0.049 H 
ATOM     14  H   UNL     1     -47.839  37.791  29.283  1.00  0.00     0.031 H 
ATOM     15  H   UNL     1     -48.951  37.450  27.993  1.00  0.00     0.031 H 
ATOM     16  H   UNL     1     -45.441  36.108  29.338  1.00  0.00     0.031 H 
ATOM     17  H   UNL     1     -44.942  35.958  27.678  1.00  0.00     0.031 H 
BRANCH   5  18
ATOM     18  C   UNL     1     -45.298  39.985  26.982  1.00  0.00     0.134 A 
ATOM     19  C   UNL     1     -43.493  41.524  27.094  1.00  0.00     0.131 A 
ATOM     20  C   UNL     1     -44.018  40.289  27.421  1.00  0.00     0.023 A 
ATOM     21  N   UNL     1     -44.169  42.414  26.361  1.00  0.00    -0.219 NA
ATOM     22  H   UNL     1     -43.443  39.586  28.005  1.00  0.00     0.070 H 
ATOM     23  C   UNL     1     -45.401  42.046  25.992  1.00  0.00     0.120 A 
ATOM     24  N   UNL     1     -46.004  40.883  26.274  1.00  0.00    -0.219 NA
ATOM     25  H   UNL     1     -45.969  42.759  25.406  1.00  0.00     0.106 H 
BRANCH  19  26
ATOM     26  N   UNL     1     -42.205  41.913  27.475  1.00  0.00    -0.373 N 
ATOM     27  H   UNL     1     -42.085  42.835  27.053  1.00  0.00     0.161 HD
BRANCH  26  28
ATOM     28  C   UNL     1     -41.985  41.950  28.911  1.00  0.00     0.005 C 
ATOM     29  H   UNL     1     -42.441  41.088  29.410  1.00  0.00     0.045 H 
ATOM     30  H   UNL     1     -42.445  42.855  29.319  1.00  0.00     0.045 H 
ATOM     31  H   UNL     1     -40.919  41.989  29.156  1.00  0.00     0.045 H 
ENDBRANCH  26  28
ENDBRANCH  19  26
ENDBRANCH   5  18
BRANCH   4  32
ATOM     32  O   UNL     1     -47.632  35.228  28.641  1.00  0.00    -0.388 OA
ATOM     33  H   UNL     1     -46.923  34.840  29.183  1.00  0.00     0.211 HD
ENDBRANCH   4  32
ENDBRANCH   1   4
BRANCH   1  34
ATOM     34  N   UNL     1     -46.309  34.742  26.154  1.00  0.00    -0.381 N 
ATOM     35  H   UNL     1     -45.478  35.002  25.615  1.00  0.00     0.160 HD
BRANCH  34  36
ATOM     36  C   UNL     1     -46.909  33.587  25.646  1.00  0.00     0.053 A 
ATOM     37  C   UNL     1     -48.146  33.101  26.065  1.00  0.00    -0.036 A 
ATOM     38  C   UNL     1     -46.200  32.752  24.775  1.00  0.00     0.050 A 
ATOM     39  C   UNL     1     -48.640  31.891  25.569  1.00  0.00    -0.037 A 
ATOM     40  H   UNL     1     -48.751  33.641  26.785  1.00  0.00     0.065 H 
ATOM     41  N   UNL     1     -46.644  31.574  24.269  1.00  0.00    -0.258 NA
ATOM     42  H   UNL     1     -45.201  33.025  24.446  1.00  0.00     0.086 H 
ATOM     43  C   UNL     1     -47.867  31.157  24.672  1.00  0.00     0.055 A 
ATOM     44  H   UNL     1     -49.605  31.518  25.894  1.00  0.00     0.064 H 
BRANCH  43  45
ATOM     45  C   UNL     1     -48.382  29.841  24.114  1.00  0.00     0.041 C 
ATOM     46  H   UNL     1     -49.478  29.908  24.134  1.00  0.00     0.050 H 
ATOM     47  H   UNL     1     -48.091  29.754  23.059  1.00  0.00     0.050 H 
BRANCH  45  48
ATOM     48  N   UNL     1     -47.947  28.649  24.870  1.00  0.00    -0.297 NA
ATOM     49  C   UNL     1     -47.312  27.650  24.009  1.00  0.00    -0.001 C 
ATOM     50  C   UNL     1     -49.077  28.074  25.617  1.00  0.00    -0.001 C 
ATOM     51  C   UNL     1     -46.636  26.563  24.861  1.00  0.00    -0.035 C 
ATOM     52  H   UNL     1     -48.046  27.198  23.330  1.00  0.00     0.043 H 
ATOM     53  H   UNL     1     -46.534  28.095  23.378  1.00  0.00     0.043 H 
ATOM     54  C   UNL     1     -48.922  26.578  25.931  1.00  0.00    -0.035 C 
ATOM     55  H   UNL     1     -49.182  28.631  26.555  1.00  0.00     0.043 H 
ATOM     56  H   UNL     1     -50.021  28.198  25.070  1.00  0.00     0.043 H 
ATOM     57  C   UNL     1     -47.454  26.146  26.112  1.00  0.00    -0.033 C 
ATOM     58  H   UNL     1     -46.460  25.698  24.210  1.00  0.00     0.029 H 
ATOM     59  H   UNL     1     -45.641  26.913  25.168  1.00  0.00     0.029 H 
ATOM     60  H   UNL     1     -49.363  26.002  25.105  1.00  0.00     0.029 H 
ATOM     61  H   UNL     1     -49.513  26.332  26.822  1.00  0.00     0.029 H 
BRANCH  57  62
ATOM     62  C   UNL     1     -46.858  26.795  27.378  1.00  0.00    -0.060 C 
ATOM     63  H   UNL     1     -46.544  27.827  27.182  1.00  0.00     0.024 H 
ATOM     64  H   UNL     1     -45.987  26.249  27.753  1.00  0.00     0.024 H 
ATOM     65  H   UNL     1     -47.596  26.825  28.189  1.00  0.00     0.024 H 
ENDBRANCH  57  62
BRANCH  57  66
ATOM     66  C   UNL     1     -47.390  24.619  26.290  1.00  0.00    -0.060 C 
ATOM     67  H   UNL     1     -46.427  24.222  25.950  1.00  0.00     0.024 H 
ATOM     68  H   UNL     1     -48.177  24.119  25.715  1.00  0.00     0.024 H 
ATOM     69  H   UNL     1     -47.516  24.337  27.341  1.00  0.00     0.024 H 
ENDBRANCH  57  66
ENDBRANCH  45  48
ENDBRANCH  43  45
ENDBRANCH  34  36
ENDBRANCH   1  34
TORSDOF 11
ENDMDL
MODEL 3
REMARK VINA RESULT:      -8.8      3.486     11.766
REMARK SMILES CNc1cc(N2CCC(O)(CNc3ccc(CN4CCC(C)(C)CC4)nc3)CC2)ncn1
REMARK SMILES IDX 11 1 9 4 6 5 7 6 29 7 8 8 28 11 5 18 3 19 4 20 32 21 31 23
REMARK SMILES IDX 30 24 2 26 1 28 10 32 12 34 13 36 14 37 27 38 15 39 26 41
REMARK SMILES IDX 16 43 17 45 18 48 19 49 25 50 20 51 24 54 21 57 22 62 23 66
REMARK H PARENT 11 2 11 3 7 9 7 10 29 12 29 13 8 14 8 15 28 16 28 17 4 22
REMARK H PARENT 31 25 2 27 1 29 1 30 1 31 10 33 12 35 14 40 27 42 15 44 17 46
REMARK H PARENT 17 47 19 52 19 53 25 55 25 56 20 58 20 59 24 60 24 61 22 63
REMARK H PARENT 22 64 22 65 23 67 23 68 23 69
REMARK Flexibility Score: inf
ROOT
ATOM      1  C   UNL     1     -48.140  31.123  23.060  1.00  0.00     0.044 C 
ATOM      2  H   UNL     1     -48.357  32.050  22.522  1.00  0.00     0.052 H 
ATOM      3  H   UNL     1     -49.090  30.692  23.402  1.00  0.00     0.052 H 
ENDROOT
BRANCH   1   4
ATOM      4  C   UNL     1     -47.424  30.096  22.132  1.00  0.00     0.085 C 
ATOM      5  N   UNL     1     -47.800  28.066  23.956  1.00  0.00    -0.356 N 
ATOM      6  C   UNL     1     -48.840  28.148  22.912  1.00  0.00     0.022 C 
ATOM      7  C   UNL     1     -46.415  28.163  23.488  1.00  0.00     0.022 C 
ATOM      8  C   UNL     1     -48.350  28.949  21.706  1.00  0.00    -0.005 C 
ATOM      9  H   UNL     1     -49.140  27.150  22.566  1.00  0.00     0.049 H 
ATOM     10  H   UNL     1     -49.730  28.640  23.321  1.00  0.00     0.049 H 
ATOM     11  C   UNL     1     -46.173  29.526  22.829  1.00  0.00    -0.005 C 
ATOM     12  H   UNL     1     -46.203  27.360  22.771  1.00  0.00     0.049 H 
ATOM     13  H   UNL     1     -45.697  28.068  24.312  1.00  0.00     0.049 H 
ATOM     14  H   UNL     1     -47.804  28.285  21.022  1.00  0.00     0.031 H 
ATOM     15  H   UNL     1     -49.201  29.312  21.118  1.00  0.00     0.031 H 
ATOM     16  H   UNL     1     -45.340  29.427  22.122  1.00  0.00     0.031 H 
ATOM     17  H   UNL     1     -45.818  30.235  23.588  1.00  0.00     0.031 H 
BRANCH   5  18
ATOM     18  C   UNL     1     -48.025  27.030  24.888  1.00  0.00     0.134 A 
ATOM     19  C   UNL     1     -49.481  25.742  26.250  1.00  0.00     0.131 A 
ATOM     20  C   UNL     1     -49.311  26.756  25.328  1.00  0.00     0.023 A 
ATOM     21  N   UNL     1     -48.457  25.016  26.709  1.00  0.00    -0.219 NA
ATOM     22  H   UNL     1     -50.160  27.317  24.967  1.00  0.00     0.070 H 
ATOM     23  C   UNL     1     -47.250  25.357  26.242  1.00  0.00     0.120 A 
ATOM     24  N   UNL     1     -46.980  26.333  25.365  1.00  0.00    -0.219 NA
ATOM     25  H   UNL     1     -46.405  24.787  26.612  1.00  0.00     0.106 H 
BRANCH  19  26
ATOM     26  N   UNL     1     -50.740  25.380  26.739  1.00  0.00    -0.373 N 
ATOM     27  H   UNL     1     -50.633  25.402  27.754  1.00  0.00     0.161 HD
BRANCH  26  28
ATOM     28  C   UNL     1     -51.829  26.236  26.298  1.00  0.00     0.005 C 
ATOM     29  H   UNL     1     -52.019  27.044  27.013  1.00  0.00     0.045 H 
ATOM     30  H   UNL     1     -52.742  25.639  26.217  1.00  0.00     0.045 H 
ATOM     31  H   UNL     1     -51.632  26.665  25.310  1.00  0.00     0.045 H 
ENDBRANCH  26  28
ENDBRANCH  19  26
ENDBRANCH   5  18
BRANCH   4  32
ATOM     32  O   UNL     1     -47.006  30.811  20.950  1.00  0.00    -0.388 OA
ATOM     33  H   UNL     1     -46.191  30.395  20.620  1.00  0.00     0.211 HD
ENDBRANCH   4  32
ENDBRANCH   1   4
BRANCH   1  34
ATOM     34  N   UNL     1     -47.304  31.389  24.239  1.00  0.00    -0.381 N 
ATOM     35  H   UNL     1     -47.293  30.560  24.840  1.00  0.00     0.160 HD
BRANCH  34  36
ATOM     36  C   UNL     1     -47.515  32.556  24.978  1.00  0.00     0.053 A 
ATOM     37  C   UNL     1     -46.591  33.596  25.075  1.00  0.00    -0.036 A 
ATOM     38  C   UNL     1     -48.634  32.669  25.808  1.00  0.00     0.050 A 
ATOM     39  C   UNL     1     -46.841  34.693  25.903  1.00  0.00    -0.037 A 
ATOM     40  H   UNL     1     -45.661  33.579  24.519  1.00  0.00     0.065 H 
ATOM     41  N   UNL     1     -48.915  33.717  26.623  1.00  0.00    -0.258 NA
ATOM     42  H   UNL     1     -49.375  31.875  25.841  1.00  0.00     0.086 H 
ATOM     43  C   UNL     1     -48.010  34.724  26.660  1.00  0.00     0.055 A 
ATOM     44  H   UNL     1     -46.123  35.503  25.973  1.00  0.00     0.064 H 
BRANCH  43  45
ATOM     45  C   UNL     1     -48.308  35.907  27.565  1.00  0.00     0.041 C 
ATOM     46  H   UNL     1     -49.103  36.479  27.068  1.00  0.00     0.050 H 
ATOM     47  H   UNL     1     -48.727  35.544  28.513  1.00  0.00     0.050 H 
BRANCH  45  48
ATOM     48  N   UNL     1     -47.149  36.787  27.814  1.00  0.00    -0.297 NA
ATOM     49  C   UNL     1     -46.210  36.205  28.775  1.00  0.00    -0.001 C 
ATOM     50  C   UNL     1     -47.599  38.120  28.243  1.00  0.00    -0.001 C 
ATOM     51  C   UNL     1     -44.902  37.013  28.799  1.00  0.00    -0.035 C 
ATOM     52  H   UNL     1     -46.653  36.170  29.779  1.00  0.00     0.043 H 
ATOM     53  H   UNL     1     -45.948  35.174  28.512  1.00  0.00     0.043 H 
ATOM     54  C   UNL     1     -46.564  38.893  29.074  1.00  0.00    -0.035 C 
ATOM     55  H   UNL     1     -47.846  38.700  27.346  1.00  0.00     0.043 H 
ATOM     56  H   UNL     1     -48.519  38.059  28.839  1.00  0.00     0.043 H 
ATOM     57  C   UNL     1     -45.109  38.548  28.702  1.00  0.00    -0.033 C 
ATOM     58  H   UNL     1     -44.373  36.753  29.725  1.00  0.00     0.029 H 
ATOM     59  H   UNL     1     -44.254  36.673  27.981  1.00  0.00     0.029 H 
ATOM     60  H   UNL     1     -46.725  38.656  30.135  1.00  0.00     0.029 H 
ATOM     61  H   UNL     1     -46.747  39.970  28.972  1.00  0.00     0.029 H 
BRANCH  57  62
ATOM     62  C   UNL     1     -44.792  39.038  27.275  1.00  0.00    -0.060 C 
ATOM     63  H   UNL     1     -45.196  40.043  27.104  1.00  0.00     0.024 H 
ATOM     64  H   UNL     1     -45.210  38.378  26.507  1.00  0.00     0.024 H 
ATOM     65  H   UNL     1     -43.710  39.086  27.107  1.00  0.00     0.024 H 
ENDBRANCH  57  62
BRANCH  57  66
ATOM     66  C   UNL     1     -44.151  39.264  29.670  1.00  0.00    -0.060 C 
ATOM     67  H   UNL     1     -44.607  40.174  30.077  1.00  0.00     0.024 H 
ATOM     68  H   UNL     1     -43.222  39.555  29.166  1.00  0.00     0.024 H 
ATOM     69  H   UNL     1     -43.882  38.618  30.513  1.00  0.00     0.024 H 
ENDBRANCH  57  66
ENDBRANCH  45  48
ENDBRANCH  43  45
ENDBRANCH  34  36
ENDBRANCH   1  34
TORSDOF 11
ENDMDL
MODEL 4
REMARK VINA RESULT:      -8.7      1.447      2.340
REMARK SMILES CNc1cc(N2CCC(O)(CNc3ccc(CN4CCC(C)(C)CC4)nc3)CC2)ncn1
REMARK SMILES IDX 11 1 9 4 6 5 7 6 29 7 8 8 28 11 5 18 3 19 4 20 32 21 31 23
REMARK SMILES IDX 30 24 2 26 1 28 10 32 12 34 13 36 14 37 27 38 15 39 26 41
REMARK SMILES IDX 16 43 17 45 18 48 19 49 25 50 20 51 24 54 21 57 22 62 23 66
REMARK H PARENT 11 2 11 3 7 9 7 10 29 12 29 13 8 14 8 15 28 16 28 17 4 22
REMARK H PARENT 31 25 2 27 1 29 1 30 1 31 10 33 12 35 14 40 27 42 15 44 17 46
REMARK H PARENT 17 47 19 52 19 53 25 55 25 56 20 58 20 59 24 60 24 61 22 63
REMARK H PARENT 22 64 22 65 23 67 23 68 23 69
REMARK Flexibility Score: inf
ROOT
ATOM      1  C   UNL     1     -46.107  36.430  27.473  1.00  0.00     0.044 C 
ATOM      2  H   UNL     1     -46.745  36.646  26.610  1.00  0.00     0.052 H 
ATOM      3  H   UNL     1     -45.115  36.860  27.284  1.00  0.00     0.052 H 
ENDROOT
BRANCH   1   4
ATOM      4  C   UNL     1     -46.695  37.064  28.770  1.00  0.00     0.085 C 
ATOM      5  N   UNL     1     -44.641  38.895  28.899  1.00  0.00    -0.356 N 
ATOM      6  C   UNL     1     -45.854  39.386  28.218  1.00  0.00     0.022 C 
ATOM      7  C   UNL     1     -44.859  38.193  30.166  1.00  0.00     0.022 C 
ATOM      8  C   UNL     1     -47.072  38.539  28.580  1.00  0.00    -0.005 C 
ATOM      9  H   UNL     1     -46.066  40.431  28.484  1.00  0.00     0.049 H 
ATOM     10  H   UNL     1     -45.706  39.343  27.133  1.00  0.00     0.049 H 
ATOM     11  C   UNL     1     -45.693  36.928  29.933  1.00  0.00    -0.005 C 
ATOM     12  H   UNL     1     -45.373  38.851  30.878  1.00  0.00     0.049 H 
ATOM     13  H   UNL     1     -43.914  37.879  30.629  1.00  0.00     0.049 H 
ATOM     14  H   UNL     1     -47.518  38.916  29.511  1.00  0.00     0.031 H 
ATOM     15  H   UNL     1     -47.859  38.663  27.827  1.00  0.00     0.031 H 
ATOM     16  H   UNL     1     -46.208  36.673  30.868  1.00  0.00     0.031 H 
ATOM     17  H   UNL     1     -45.019  36.082  29.743  1.00  0.00     0.031 H 
BRANCH   5  18
ATOM     18  C   UNL     1     -43.597  39.845  28.937  1.00  0.00     0.134 A 
ATOM     19  C   UNL     1     -42.351  41.603  27.939  1.00  0.00     0.131 A 
ATOM     20  C   UNL     1     -43.393  40.698  27.863  1.00  0.00     0.023 A 
ATOM     21  N   UNL     1     -41.558  41.688  29.012  1.00  0.00    -0.219 NA
ATOM     22  H   UNL     1     -44.024  40.661  26.988  1.00  0.00     0.070 H 
ATOM     23  C   UNL     1     -41.817  40.818  29.995  1.00  0.00     0.120 A 
ATOM     24  N   UNL     1     -42.787  39.895  30.008  1.00  0.00    -0.219 NA
ATOM     25  H   UNL     1     -41.177  40.865  30.868  1.00  0.00     0.106 H 
BRANCH  19  26
ATOM     26  N   UNL     1     -42.078  42.515  26.916  1.00  0.00    -0.373 N 
ATOM     27  H   UNL     1     -41.307  42.091  26.398  1.00  0.00     0.161 HD
BRANCH  26  28
ATOM     28  C   UNL     1     -43.207  42.805  26.048  1.00  0.00     0.005 C 
ATOM     29  H   UNL     1     -43.091  42.335  25.065  1.00  0.00     0.045 H 
ATOM     30  H   UNL     1     -43.271  43.887  25.895  1.00  0.00     0.045 H 
ATOM     31  H   UNL     1     -44.154  42.484  26.494  1.00  0.00     0.045 H 
ENDBRANCH  26  28
ENDBRANCH  19  26
ENDBRANCH   5  18
BRANCH   4  32
ATOM     32  O   UNL     1     -47.888  36.324  29.102  1.00  0.00    -0.388 OA
ATOM     33  H   UNL     1     -47.782  35.417  28.767  1.00  0.00     0.211 HD
ENDBRANCH   4  32
ENDBRANCH   1   4
BRANCH   1  34
ATOM     34  N   UNL     1     -45.956  34.981  27.657  1.00  0.00    -0.381 N 
ATOM     35  H   UNL     1     -44.962  34.754  27.754  1.00  0.00     0.160 HD
BRANCH  34  36
ATOM     36  C   UNL     1     -46.597  34.107  26.774  1.00  0.00     0.053 A 
ATOM     37  C   UNL     1     -45.964  33.475  25.705  1.00  0.00    -0.036 A 
ATOM     38  C   UNL     1     -47.984  33.943  26.833  1.00  0.00     0.050 A 
ATOM     39  C   UNL     1     -46.695  32.682  24.816  1.00  0.00    -0.037 A 
ATOM     40  H   UNL     1     -44.900  33.585  25.533  1.00  0.00     0.065 H 
ATOM     41  N   UNL     1     -48.729  33.181  25.993  1.00  0.00    -0.258 NA
ATOM     42  H   UNL     1     -48.565  34.450  27.599  1.00  0.00     0.086 H 
ATOM     43  C   UNL     1     -48.071  32.554  24.990  1.00  0.00     0.055 A 
ATOM     44  H   UNL     1     -46.199  32.187  23.987  1.00  0.00     0.064 H 
BRANCH  43  45
ATOM     45  C   UNL     1     -48.887  31.693  24.041  1.00  0.00     0.041 C 
ATOM     46  H   UNL     1     -49.927  32.034  24.136  1.00  0.00     0.050 H 
ATOM     47  H   UNL     1     -48.582  31.901  23.006  1.00  0.00     0.050 H 
BRANCH  45  48
ATOM     48  N   UNL     1     -48.815  30.245  24.320  1.00  0.00    -0.297 NA
ATOM     49  C   UNL     1     -48.490  29.969  25.721  1.00  0.00    -0.001 C 
ATOM     50  C   UNL     1     -47.863  29.593  23.409  1.00  0.00    -0.001 C 
ATOM     51  C   UNL     1     -48.692  28.477  26.031  1.00  0.00    -0.035 C 
ATOM     52  H   UNL     1     -47.458  30.266  25.947  1.00  0.00     0.043 H 
ATOM     53  H   UNL     1     -49.135  30.531  26.405  1.00  0.00     0.043 H 
ATOM     54  C   UNL     1     -47.267  28.287  23.956  1.00  0.00    -0.035 C 
ATOM     55  H   UNL     1     -48.383  29.385  22.467  1.00  0.00     0.043 H 
ATOM     56  H   UNL     1     -47.024  30.258  23.164  1.00  0.00     0.043 H 
ATOM     57  C   UNL     1     -48.227  27.529  24.893  1.00  0.00    -0.033 C 
ATOM     58  H   UNL     1     -48.149  28.258  26.960  1.00  0.00     0.029 H 
ATOM     59  H   UNL     1     -49.751  28.296  26.255  1.00  0.00     0.029 H 
ATOM     60  H   UNL     1     -46.349  28.529  24.510  1.00  0.00     0.029 H 
ATOM     61  H   UNL     1     -46.957  27.650  23.118  1.00  0.00     0.029 H 
BRANCH  57  62
ATOM     62  C   UNL     1     -49.446  27.010  24.103  1.00  0.00    -0.060 C 
ATOM     63  H   UNL     1     -50.205  26.595  24.777  1.00  0.00     0.024 H 
ATOM     64  H   UNL     1     -49.173  26.226  23.389  1.00  0.00     0.024 H 
ATOM     65  H   UNL     1     -49.919  27.818  23.533  1.00  0.00     0.024 H 
ENDBRANCH  57  62
BRANCH  57  66
ATOM     66  C   UNL     1     -47.501  26.312  25.493  1.00  0.00    -0.060 C 
ATOM     67  H   UNL     1     -47.038  26.563  26.455  1.00  0.00     0.024 H 
ATOM     68  H   UNL     1     -46.709  25.955  24.826  1.00  0.00     0.024 H 
ATOM     69  H   UNL     1     -48.193  25.481  25.661  1.00  0.00     0.024 H 
ENDBRANCH  57  66
ENDBRANCH  45  48
ENDBRANCH  43  45
ENDBRANCH  34  36
ENDBRANCH   1  34
TORSDOF 11
ENDMDL
MODEL 5
REMARK VINA RESULT:      -8.6      2.516     10.648
REMARK SMILES CNc1cc(N2CCC(O)(CNc3ccc(CN4CCC(C)(C)CC4)nc3)CC2)ncn1
REMARK SMILES IDX 11 1 9 4 6 5 7 6 29 7 8 8 28 11 5 18 3 19 4 20 32 21 31 23
REMARK SMILES IDX 30 24 2 26 1 28 10 32 12 34 13 36 14 37 27 38 15 39 26 41
REMARK SMILES IDX 16 43 17 45 18 48 19 49 25 50 20 51 24 54 21 57 22 62 23 66
REMARK H PARENT 11 2 11 3 7 9 7 10 29 12 29 13 8 14 8 15 28 16 28 17 4 22
REMARK H PARENT 31 25 2 27 1 29 1 30 1 31 10 33 12 35 14 40 27 42 15 44 17 46
REMARK H PARENT 17 47 19 52 19 53 25 55 25 56 20 58 20 59 24 60 24 61 22 63
REMARK H PARENT 22 64 22 65 23 67 23 68 23 69
REMARK Flexibility Score: inf
ROOT
ATOM      1  C   UNL     1     -45.374  37.998  28.113  1.00  0.00     0.044 C 
ATOM      2  H   UNL     1     -44.778  37.082  28.052  1.00  0.00     0.052 H 
ATOM      3  H   UNL     1     -45.602  38.331  27.092  1.00  0.00     0.052 H 
ENDROOT
BRANCH   1   4
ATOM      4  C   UNL     1     -46.711  37.742  28.872  1.00  0.00     0.085 C 
ATOM      5  N   UNL     1     -47.211  35.478  27.384  1.00  0.00    -0.356 N 
ATOM      6  C   UNL     1     -46.537  35.225  28.672  1.00  0.00     0.022 C 
ATOM      7  C   UNL     1     -48.353  36.394  27.430  1.00  0.00     0.022 C 
ATOM      8  C   UNL     1     -46.707  36.405  29.626  1.00  0.00    -0.005 C 
ATOM      9  H   UNL     1     -46.933  34.324  29.161  1.00  0.00     0.049 H 
ATOM     10  H   UNL     1     -45.467  35.065  28.498  1.00  0.00     0.049 H 
ATOM     11  C   UNL     1     -47.899  37.784  27.891  1.00  0.00    -0.005 C 
ATOM     12  H   UNL     1     -49.120  36.008  28.114  1.00  0.00     0.049 H 
ATOM     13  H   UNL     1     -48.821  36.515  26.444  1.00  0.00     0.049 H 
ATOM     14  H   UNL     1     -47.654  36.302  30.174  1.00  0.00     0.031 H 
ATOM     15  H   UNL     1     -45.935  36.381  30.404  1.00  0.00     0.031 H 
ATOM     16  H   UNL     1     -48.758  38.301  28.337  1.00  0.00     0.031 H 
ATOM     17  H   UNL     1     -47.631  38.385  27.013  1.00  0.00     0.031 H 
BRANCH   5  18
ATOM     18  C   UNL     1     -47.440  34.305  26.633  1.00  0.00     0.134 A 
ATOM     19  C   UNL     1     -46.701  32.625  25.127  1.00  0.00     0.131 A 
ATOM     20  C   UNL     1     -46.427  33.767  25.855  1.00  0.00     0.023 A 
ATOM     21  N   UNL     1     -47.894  32.024  25.167  1.00  0.00    -0.219 NA
ATOM     22  H   UNL     1     -45.449  34.223  25.812  1.00  0.00     0.070 H 
ATOM     23  C   UNL     1     -48.818  32.618  25.932  1.00  0.00     0.120 A 
ATOM     24  N   UNL     1     -48.656  33.732  26.657  1.00  0.00    -0.219 NA
ATOM     25  H   UNL     1     -49.795  32.151  25.967  1.00  0.00     0.106 H 
BRANCH  19  26
ATOM     26  N   UNL     1     -45.739  31.999  24.328  1.00  0.00    -0.373 N 
ATOM     27  H   UNL     1     -45.124  31.531  24.995  1.00  0.00     0.161 HD
BRANCH  26  28
ATOM     28  C   UNL     1     -46.277  31.067  23.352  1.00  0.00     0.005 C 
ATOM     29  H   UNL     1     -45.985  31.339  22.332  1.00  0.00     0.045 H 
ATOM     30  H   UNL     1     -47.370  31.087  23.404  1.00  0.00     0.045 H 
ATOM     31  H   UNL     1     -45.962  30.039  23.558  1.00  0.00     0.045 H 
ENDBRANCH  26  28
ENDBRANCH  19  26
ENDBRANCH   5  18
BRANCH   4  32
ATOM     32  O   UNL     1     -46.868  38.809  29.830  1.00  0.00    -0.388 OA
ATOM     33  H   UNL     1     -47.429  39.494  29.427  1.00  0.00     0.211 HD
ENDBRANCH   4  32
ENDBRANCH   1   4
BRANCH   1  34
ATOM     34  N   UNL     1     -44.620  39.064  28.789  1.00  0.00    -0.381 N 
ATOM     35  H   UNL     1     -45.174  39.428  29.569  1.00  0.00     0.160 HD
BRANCH  34  36
ATOM     36  C   UNL     1     -44.064  40.096  28.029  1.00  0.00     0.053 A 
ATOM     37  C   UNL     1     -43.056  40.945  28.485  1.00  0.00    -0.036 A 
ATOM     38  C   UNL     1     -44.619  40.435  26.791  1.00  0.00     0.050 A 
ATOM     39  C   UNL     1     -42.612  42.008  27.694  1.00  0.00    -0.037 A 
ATOM     40  H   UNL     1     -42.599  40.807  29.457  1.00  0.00     0.065 H 
ATOM     41  N   UNL     1     -44.216  41.455  25.993  1.00  0.00    -0.258 NA
ATOM     42  H   UNL     1     -45.451  39.862  26.388  1.00  0.00     0.086 H 
ATOM     43  C   UNL     1     -43.209  42.233  26.456  1.00  0.00     0.055 A 
ATOM     44  H   UNL     1     -41.824  42.665  28.050  1.00  0.00     0.064 H 
BRANCH  43  45
ATOM     45  C   UNL     1     -42.741  43.379  25.575  1.00  0.00     0.041 C 
ATOM     46  H   UNL     1     -42.305  44.126  26.251  1.00  0.00     0.050 H 
ATOM     47  H   UNL     1     -41.929  43.031  24.924  1.00  0.00     0.050 H 
BRANCH  45  48
ATOM     48  N   UNL     1     -43.813  44.005  24.775  1.00  0.00    -0.297 NA
ATOM     49  C   UNL     1     -43.582  43.864  23.336  1.00  0.00    -0.001 C 
ATOM     50  C   UNL     1     -43.981  45.416  25.156  1.00  0.00    -0.001 C 
ATOM     51  C   UNL     1     -44.837  44.280  22.551  1.00  0.00    -0.035 C 
ATOM     52  H   UNL     1     -42.721  44.466  23.019  1.00  0.00     0.043 H 
ATOM     53  H   UNL     1     -43.358  42.827  23.061  1.00  0.00     0.043 H 
ATOM     54  C   UNL     1     -44.593  46.293  24.054  1.00  0.00    -0.035 C 
ATOM     55  H   UNL     1     -44.623  45.453  26.044  1.00  0.00     0.043 H 
ATOM     56  H   UNL     1     -43.023  45.870  25.442  1.00  0.00     0.043 H 
ATOM     57  C   UNL     1     -45.560  45.523  23.134  1.00  0.00    -0.033 C 
ATOM     58  H   UNL     1     -44.530  44.465  21.514  1.00  0.00     0.029 H 
ATOM     59  H   UNL     1     -45.533  43.432  22.509  1.00  0.00     0.029 H 
ATOM     60  H   UNL     1     -43.777  46.706  23.445  1.00  0.00     0.029 H 
ATOM     61  H   UNL     1     -45.095  47.155  24.513  1.00  0.00     0.029 H 
BRANCH  57  62
ATOM     62  C   UNL     1     -46.814  45.089  23.920  1.00  0.00    -0.060 C 
ATOM     63  H   UNL     1     -46.858  43.999  24.021  1.00  0.00     0.024 H 
ATOM     64  H   UNL     1     -47.740  45.416  23.435  1.00  0.00     0.024 H 
ATOM     65  H   UNL     1     -46.810  45.513  24.931  1.00  0.00     0.024 H 
ENDBRANCH  57  62
BRANCH  57  66
ATOM     66  C   UNL     1     -46.017  46.444  21.988  1.00  0.00    -0.060 C 
ATOM     67  H   UNL     1     -47.071  46.724  22.103  1.00  0.00     0.024 H 
ATOM     68  H   UNL     1     -45.909  45.950  21.016  1.00  0.00     0.024 H 
ATOM     69  H   UNL     1     -45.427  47.366  21.961  1.00  0.00     0.024 H 
ENDBRANCH  57  66
ENDBRANCH  45  48
ENDBRANCH  43  45
ENDBRANCH  34  36
ENDBRANCH   1  34
TORSDOF 11
ENDMDL
MODEL 6
REMARK VINA RESULT:      -8.5      3.029      4.424
REMARK SMILES CNc1cc(N2CCC(O)(CNc3ccc(CN4CCC(C)(C)CC4)nc3)CC2)ncn1
REMARK SMILES IDX 11 1 9 4 6 5 7 6 29 7 8 8 28 11 5 18 3 19 4 20 32 21 31 23
REMARK SMILES IDX 30 24 2 26 1 28 10 32 12 34 13 36 14 37 27 38 15 39 26 41
REMARK SMILES IDX 16 43 17 45 18 48 19 49 25 50 20 51 24 54 21 57 22 62 23 66
REMARK H PARENT 11 2 11 3 7 9 7 10 29 12 29 13 8 14 8 15 28 16 28 17 4 22
REMARK H PARENT 31 25 2 27 1 29 1 30 1 31 10 33 12 35 14 40 27 42 15 44 17 46
REMARK H PARENT 17 47 19 52 19 53 25 55 25 56 20 58 20 59 24 60 24 61 22 63
REMARK H PARENT 22 64 22 65 23 67 23 68 23 69
REMARK Flexibility Score: inf
ROOT
ATOM      1  C   UNL     1     -46.562  35.253  26.737  1.00  0.00     0.044 C 
ATOM      2  H   UNL     1     -46.394  36.092  26.056  1.00  0.00     0.052 H 
ATOM      3  H   UNL     1     -45.783  34.501  26.558  1.00  0.00     0.052 H 
ENDROOT
BRANCH   1   4
ATOM      4  C   UNL     1     -46.482  35.720  28.222  1.00  0.00     0.085 C 
ATOM      5  N   UNL     1     -46.435  38.369  27.469  1.00  0.00    -0.356 N 
ATOM      6  C   UNL     1     -47.777  37.852  27.798  1.00  0.00     0.022 C 
ATOM      7  C   UNL     1     -45.369  38.026  28.412  1.00  0.00     0.022 C 
ATOM      8  C   UNL     1     -47.688  36.575  28.631  1.00  0.00    -0.005 C 
ATOM      9  H   UNL     1     -48.365  38.592  28.359  1.00  0.00     0.049 H 
ATOM     10  H   UNL     1     -48.320  37.630  26.872  1.00  0.00     0.049 H 
ATOM     11  C   UNL     1     -45.179  36.506  28.467  1.00  0.00    -0.005 C 
ATOM     12  H   UNL     1     -45.614  38.406  29.412  1.00  0.00     0.049 H 
ATOM     13  H   UNL     1     -44.406  38.464  28.120  1.00  0.00     0.049 H 
ATOM     14  H   UNL     1     -47.597  36.836  29.695  1.00  0.00     0.031 H 
ATOM     15  H   UNL     1     -48.626  36.011  28.565  1.00  0.00     0.031 H 
ATOM     16  H   UNL     1     -44.738  36.244  29.437  1.00  0.00     0.031 H 
ATOM     17  H   UNL     1     -44.425  36.210  27.725  1.00  0.00     0.031 H 
BRANCH   5  18
ATOM     18  C   UNL     1     -46.441  39.722  27.069  1.00  0.00     0.134 A 
ATOM     19  C   UNL     1     -47.588  41.755  26.629  1.00  0.00     0.131 A 
ATOM     20  C   UNL     1     -47.629  40.436  27.040  1.00  0.00     0.023 A 
ATOM     21  N   UNL     1     -46.446  42.357  26.281  1.00  0.00    -0.219 NA
ATOM     22  H   UNL     1     -48.565  39.980  27.327  1.00  0.00     0.070 H 
ATOM     23  C   UNL     1     -45.350  41.591  26.324  1.00  0.00     0.120 A 
ATOM     24  N   UNL     1     -45.290  40.303  26.689  1.00  0.00    -0.219 NA
ATOM     25  H   UNL     1     -44.417  42.059  26.034  1.00  0.00     0.106 H 
BRANCH  19  26
ATOM     26  N   UNL     1     -48.730  42.559  26.586  1.00  0.00    -0.373 N 
ATOM     27  H   UNL     1     -48.854  42.768  25.594  1.00  0.00     0.161 HD
BRANCH  26  28
ATOM     28  C   UNL     1     -49.920  41.952  27.157  1.00  0.00     0.005 C 
ATOM     29  H   UNL     1     -49.670  41.279  27.985  1.00  0.00     0.045 H 
ATOM     30  H   UNL     1     -50.423  41.360  26.385  1.00  0.00     0.045 H 
ATOM     31  H   UNL     1     -50.633  42.706  27.504  1.00  0.00     0.045 H 
ENDBRANCH  26  28
ENDBRANCH  19  26
ENDBRANCH   5  18
BRANCH   4  32
ATOM     32  O   UNL     1     -46.462  34.531  29.041  1.00  0.00    -0.388 OA
ATOM     33  H   UNL     1     -45.664  34.024  28.814  1.00  0.00     0.211 HD
ENDBRANCH   4  32
ENDBRANCH   1   4
BRANCH   1  34
ATOM     34  N   UNL     1     -47.870  34.632  26.486  1.00  0.00    -0.381 N 
ATOM     35  H   UNL     1     -48.387  34.562  27.366  1.00  0.00     0.160 HD
BRANCH  34  36
ATOM     36  C   UNL     1     -47.933  33.440  25.758  1.00  0.00     0.053 A 
ATOM     37  C   UNL     1     -49.079  32.654  25.647  1.00  0.00    -0.036 A 
ATOM     38  C   UNL     1     -46.769  32.884  25.219  1.00  0.00     0.050 A 
ATOM     39  C   UNL     1     -49.038  31.431  24.971  1.00  0.00    -0.037 A 
ATOM     40  H   UNL     1     -50.022  32.965  26.082  1.00  0.00     0.065 H 
ATOM     41  N   UNL     1     -46.688  31.704  24.555  1.00  0.00    -0.258 NA
ATOM     42  H   UNL     1     -45.818  33.402  25.314  1.00  0.00     0.086 H 
ATOM     43  C   UNL     1     -47.831  30.988  24.436  1.00  0.00     0.055 A 
ATOM     44  H   UNL     1     -49.933  30.824  24.883  1.00  0.00     0.064 H 
BRANCH  43  45
ATOM     45  C   UNL     1     -47.761  29.665  23.693  1.00  0.00     0.041 C 
ATOM     46  H   UNL     1     -48.715  29.563  23.158  1.00  0.00     0.050 H 
ATOM     47  H   UNL     1     -46.975  29.718  22.928  1.00  0.00     0.050 H 
BRANCH  45  48
ATOM     48  N   UNL     1     -47.556  28.490  24.564  1.00  0.00    -0.297 NA
ATOM     49  C   UNL     1     -46.654  27.507  23.962  1.00  0.00    -0.001 C 
ATOM     50  C   UNL     1     -48.848  27.885  24.922  1.00  0.00    -0.001 C 
ATOM     51  C   UNL     1     -46.255  26.444  24.999  1.00  0.00    -0.035 C 
ATOM     52  H   UNL     1     -47.123  27.030  23.092  1.00  0.00     0.043 H 
ATOM     53  H   UNL     1     -45.729  27.972  23.604  1.00  0.00     0.043 H 
ATOM     54  C   UNL     1     -48.761  26.396  25.290  1.00  0.00    -0.035 C 
ATOM     55  H   UNL     1     -49.260  28.442  25.771  1.00  0.00     0.043 H 
ATOM     56  H   UNL     1     -49.574  27.979  24.103  1.00  0.00     0.043 H 
ATOM     57  C   UNL     1     -47.415  26.009  25.932  1.00  0.00    -0.033 C 
ATOM     58  H   UNL     1     -45.858  25.582  24.449  1.00  0.00     0.029 H 
ATOM     59  H   UNL     1     -45.418  26.825  25.600  1.00  0.00     0.029 H 
ATOM     60  H   UNL     1     -48.901  25.803  24.375  1.00  0.00     0.029 H 
ATOM     61  H   UNL     1     -49.597  26.136  25.951  1.00  0.00     0.029 H 
BRANCH  57  62
ATOM     62  C   UNL     1     -47.269  26.680  27.313  1.00  0.00    -0.060 C 
ATOM     63  H   UNL     1     -47.531  27.744  27.263  1.00  0.00     0.024 H 
ATOM     64  H   UNL     1     -46.248  26.608  27.702  1.00  0.00     0.024 H 
ATOM     65  H   UNL     1     -47.931  26.212  28.050  1.00  0.00     0.024 H 
ENDBRANCH  57  62
BRANCH  57  66
ATOM     66  C   UNL     1     -47.369  24.485  26.143  1.00  0.00    -0.060 C 
ATOM     67  H   UNL     1     -47.496  23.951  25.194  1.00  0.00     0.024 H 
ATOM     68  H   UNL     1     -48.166  24.154  26.819  1.00  0.00     0.024 H 
ATOM     69  H   UNL     1     -46.414  24.173  26.577  1.00  0.00     0.024 H 
ENDBRANCH  57  66
ENDBRANCH  45  48
ENDBRANCH  43  45
ENDBRANCH  34  36
ENDBRANCH   1  34
TORSDOF 11
ENDMDL
