MODEL 1
REMARK VINA RESULT:     -11.2      0.000      0.000
REMARK SMILES O=C(NCc1ccc2cc(CNC[C@H]3CC3(F)F)[nH]c2c1)c1cc(=O)n2ccccc2n1
REMARK SMILES IDX 5 1 6 2 7 3 8 4 9 5 10 6 19 7 20 8 21 9 4 15 3 18 1 19 2 20
REMARK SMILES IDX 22 22 23 23 32 24 24 25 31 27 25 28 26 29 30 30 27 31 29 32
REMARK SMILES IDX 28 34 11 38 12 41 13 43 14 46 15 47 16 48 17 52 18 53
REMARK H PARENT 6 10 7 11 9 12 19 13 21 14 4 16 4 17 3 21 23 26 30 33 27 35
REMARK H PARENT 29 36 28 37 11 39 11 40 12 42 13 44 13 45 14 49 15 50 15 51
REMARK Flexibility Score: inf
ROOT
ATOM      1  C   UNL     1     -48.062  34.700  26.551  1.00  0.00    -0.027 A 
ATOM      2  C   UNL     1     -46.800  34.793  25.946  1.00  0.00    -0.057 A 
ATOM      3  C   UNL     1     -46.312  33.765  25.128  1.00  0.00    -0.052 A 
ATOM      4  C   UNL     1     -47.106  32.626  24.905  1.00  0.00    -0.000 A 
ATOM      5  C   UNL     1     -46.930  31.429  24.155  1.00  0.00    -0.032 A 
ATOM      6  C   UNL     1     -48.067  30.659  24.307  1.00  0.00     0.030 A 
ATOM      7  N   UNL     1     -48.924  31.361  25.121  1.00  0.00    -0.357 N 
ATOM      8  C   UNL     1     -48.363  32.556  25.501  1.00  0.00     0.046 A 
ATOM      9  C   UNL     1     -48.868  33.572  26.323  1.00  0.00    -0.033 A 
ATOM     10  H   UNL     1     -46.182  35.673  26.109  1.00  0.00     0.063 H 
ATOM     11  H   UNL     1     -45.331  33.850  24.673  1.00  0.00     0.063 H 
ATOM     12  H   UNL     1     -46.062  31.163  23.569  1.00  0.00     0.065 H 
ATOM     13  H   UNL     1     -49.827  31.015  25.420  1.00  0.00     0.166 HD
ATOM     14  H   UNL     1     -49.856  33.492  26.769  1.00  0.00     0.065 H 
ENDROOT
BRANCH   1  15
ATOM     15  C   UNL     1     -48.578  35.831  27.400  1.00  0.00     0.043 C 
ATOM     16  H   UNL     1     -49.520  36.221  26.997  1.00  0.00     0.054 H 
ATOM     17  H   UNL     1     -48.791  35.489  28.421  1.00  0.00     0.054 H 
BRANCH  15  18
ATOM     18  N   UNL     1     -47.619  36.900  27.469  1.00  0.00    -0.347 N 
ATOM     19  O   UNL     1     -46.943  36.477  29.621  1.00  0.00    -0.268 OA
ATOM     20  C   UNL     1     -46.850  37.120  28.582  1.00  0.00     0.270 C 
ATOM     21  H   UNL     1     -47.419  37.462  26.647  1.00  0.00     0.164 HD
BRANCH  20  22
ATOM     22  C   UNL     1     -45.864  38.246  28.389  1.00  0.00     0.136 A 
ATOM     23  C   UNL     1     -46.072  39.047  27.341  1.00  0.00     0.035 A 
ATOM     24  N   UNL     1     -44.830  38.382  29.287  1.00  0.00    -0.225 NA
ATOM     25  C   UNL     1     -45.135  40.155  27.116  1.00  0.00     0.258 A 
ATOM     26  H   UNL     1     -46.889  38.930  26.642  1.00  0.00     0.071 H 
ATOM     27  C   UNL     1     -44.004  39.362  29.085  1.00  0.00     0.140 A 
ATOM     28  O   UNL     1     -45.319  40.897  26.153  1.00  0.00    -0.269 OA
ATOM     29  N   UNL     1     -44.102  40.268  28.034  1.00  0.00    -0.268 N 
ATOM     30  C   UNL     1     -42.868  39.546  30.032  1.00  0.00    -0.019 A 
ATOM     31  C   UNL     1     -43.174  41.294  27.887  1.00  0.00     0.014 A 
ATOM     32  C   UNL     1     -42.000  40.548  29.848  1.00  0.00    -0.057 A 
ATOM     33  H   UNL     1     -42.784  38.844  30.853  1.00  0.00     0.066 H 
ATOM     34  C   UNL     1     -42.156  41.454  28.741  1.00  0.00    -0.045 A 
ATOM     35  H   UNL     1     -43.311  41.967  27.043  1.00  0.00     0.082 H 
ATOM     36  H   UNL     1     -41.168  40.698  30.527  1.00  0.00     0.062 H 
ATOM     37  H   UNL     1     -41.438  42.258  28.616  1.00  0.00     0.064 H 
ENDBRANCH  20  22
ENDBRANCH  15  18
ENDBRANCH   1  15
BRANCH   6  38
ATOM     38  C   UNL     1     -48.435  29.329  23.749  1.00  0.00     0.036 C 
ATOM     39  H   UNL     1     -49.513  29.180  23.882  1.00  0.00     0.049 H 
ATOM     40  H   UNL     1     -48.221  29.317  22.674  1.00  0.00     0.049 H 
BRANCH  38  41
ATOM     41  N   UNL     1     -47.684  28.292  24.447  1.00  0.00    -0.311 NA
ATOM     42  H   UNL     1     -47.056  27.835  23.785  1.00  0.00     0.123 HD
BRANCH  41  43
ATOM     43  C   UNL     1     -48.539  27.297  25.087  1.00  0.00     0.004 C 
ATOM     44  H   UNL     1     -48.684  26.427  24.436  1.00  0.00     0.043 H 
ATOM     45  H   UNL     1     -49.529  27.750  25.216  1.00  0.00     0.043 H 
BRANCH  43  46
ATOM     46  C   UNL     1     -47.990  26.870  26.407  1.00  0.00     0.041 C 
ATOM     47  C   UNL     1     -48.071  25.424  26.858  1.00  0.00     0.021 C 
ATOM     48  C   UNL     1     -46.776  26.018  26.445  1.00  0.00     0.252 C 
ATOM     49  H   UNL     1     -48.038  27.648  27.158  1.00  0.00     0.038 H 
ATOM     50  H   UNL     1     -48.513  24.693  26.193  1.00  0.00     0.033 H 
ATOM     51  H   UNL     1     -48.212  25.227  27.913  1.00  0.00     0.033 H 
ATOM     52  F   UNL     1     -45.793  26.250  27.377  1.00  0.00    -0.207 F 
ATOM     53  F   UNL     1     -46.160  25.604  25.288  1.00  0.00    -0.207 F 
ENDBRANCH  43  46
ENDBRANCH  41  43
ENDBRANCH  38  41
ENDBRANCH   6  38
TORSDOF 7
ENDMDL
MODEL 2
REMARK VINA RESULT:     -10.4      1.625      2.319
REMARK SMILES O=C(NCc1ccc2cc(CNC[C@H]3CC3(F)F)[nH]c2c1)c1cc(=O)n2ccccc2n1
REMARK SMILES IDX 5 1 6 2 7 3 8 4 9 5 10 6 19 7 20 8 21 9 4 15 3 18 1 19 2 20
REMARK SMILES IDX 22 22 23 23 32 24 24 25 31 27 25 28 26 29 30 30 27 31 29 32
REMARK SMILES IDX 28 34 11 38 12 41 13 43 14 46 15 47 16 48 17 52 18 53
REMARK H PARENT 6 10 7 11 9 12 19 13 21 14 4 16 4 17 3 21 23 26 30 33 27 35
REMARK H PARENT 29 36 28 37 11 39 11 40 12 42 13 44 13 45 14 49 15 50 15 51
REMARK Flexibility Score: inf
ROOT
ATOM      1  C   UNL     1     -46.448  35.115  27.698  1.00  0.00    -0.027 A 
ATOM      2  C   UNL     1     -47.681  35.674  27.333  1.00  0.00    -0.057 A 
ATOM      3  C   UNL     1     -48.648  34.917  26.659  1.00  0.00    -0.052 A 
ATOM      4  C   UNL     1     -48.380  33.571  26.352  1.00  0.00    -0.000 A 
ATOM      5  C   UNL     1     -49.110  32.541  25.695  1.00  0.00    -0.032 A 
ATOM      6  C   UNL     1     -48.330  31.402  25.687  1.00  0.00     0.030 A 
ATOM      7  N   UNL     1     -47.153  31.715  26.325  1.00  0.00    -0.357 N 
ATOM      8  C   UNL     1     -47.156  33.026  26.735  1.00  0.00     0.046 A 
ATOM      9  C   UNL     1     -46.175  33.767  27.408  1.00  0.00    -0.033 A 
ATOM     10  H   UNL     1     -47.900  36.712  27.571  1.00  0.00     0.063 H 
ATOM     11  H   UNL     1     -49.595  35.367  26.378  1.00  0.00     0.063 H 
ATOM     12  H   UNL     1     -50.102  32.629  25.274  1.00  0.00     0.065 H 
ATOM     13  H   UNL     1     -46.384  31.067  26.439  1.00  0.00     0.166 HD
ATOM     14  H   UNL     1     -45.233  33.312  27.699  1.00  0.00     0.065 H 
ENDROOT
BRANCH   1  15
ATOM     15  C   UNL     1     -45.436  35.938  28.449  1.00  0.00     0.043 C 
ATOM     16  H   UNL     1     -45.726  36.045  29.502  1.00  0.00     0.054 H 
ATOM     17  H   UNL     1     -44.452  35.453  28.442  1.00  0.00     0.054 H 
BRANCH  15  18
ATOM     18  N   UNL     1     -45.304  37.245  27.865  1.00  0.00    -0.347 N 
ATOM     19  O   UNL     1     -45.954  38.410  29.733  1.00  0.00    -0.268 OA
ATOM     20  C   UNL     1     -45.552  38.391  28.575  1.00  0.00     0.270 C 
ATOM     21  H   UNL     1     -44.924  37.352  26.929  1.00  0.00     0.164 HD
BRANCH  20  22
ATOM     22  C   UNL     1     -45.269  39.639  27.776  1.00  0.00     0.136 A 
ATOM     23  C   UNL     1     -46.317  40.216  27.181  1.00  0.00     0.035 A 
ATOM     24  N   UNL     1     -43.976  40.104  27.709  1.00  0.00    -0.225 NA
ATOM     25  C   UNL     1     -46.086  41.432  26.393  1.00  0.00     0.258 A 
ATOM     26  H   UNL     1     -47.330  39.841  27.242  1.00  0.00     0.071 H 
ATOM     27  C   UNL     1     -43.775  41.180  27.011  1.00  0.00     0.140 A 
ATOM     28  O   UNL     1     -47.045  41.970  25.842  1.00  0.00    -0.269 OA
ATOM     29  N   UNL     1     -44.774  41.878  26.340  1.00  0.00    -0.268 N 
ATOM     30  C   UNL     1     -42.389  41.718  26.909  1.00  0.00    -0.019 A 
ATOM     31  C   UNL     1     -44.476  43.026  25.612  1.00  0.00     0.014 A 
ATOM     32  C   UNL     1     -42.153  42.825  26.196  1.00  0.00    -0.057 A 
ATOM     33  H   UNL     1     -41.605  41.179  27.428  1.00  0.00     0.066 H 
ATOM     34  C   UNL     1     -43.230  43.504  25.526  1.00  0.00    -0.045 A 
ATOM     35  H   UNL     1     -45.306  43.523  25.113  1.00  0.00     0.082 H 
ATOM     36  H   UNL     1     -41.151  43.232  26.111  1.00  0.00     0.062 H 
ATOM     37  H   UNL     1     -43.009  44.400  24.954  1.00  0.00     0.064 H 
ENDBRANCH  20  22
ENDBRANCH  15  18
ENDBRANCH   1  15
BRANCH   6  38
ATOM     38  C   UNL     1     -48.587  30.038  25.149  1.00  0.00     0.036 C 
ATOM     39  H   UNL     1     -49.591  30.018  24.710  1.00  0.00     0.049 H 
ATOM     40  H   UNL     1     -47.865  29.822  24.353  1.00  0.00     0.049 H 
BRANCH  38  41
ATOM     41  N   UNL     1     -48.481  29.068  26.233  1.00  0.00    -0.311 NA
ATOM     42  H   UNL     1     -47.553  29.138  26.651  1.00  0.00     0.123 HD
BRANCH  41  43
ATOM     43  C   UNL     1     -48.729  27.696  25.801  1.00  0.00     0.004 C 
ATOM     44  H   UNL     1     -48.354  27.530  24.784  1.00  0.00     0.043 H 
ATOM     45  H   UNL     1     -49.816  27.559  25.752  1.00  0.00     0.043 H 
BRANCH  43  46
ATOM     46  C   UNL     1     -48.126  26.708  26.743  1.00  0.00     0.041 C 
ATOM     47  C   UNL     1     -47.990  25.245  26.361  1.00  0.00     0.021 C 
ATOM     48  C   UNL     1     -46.798  26.125  26.428  1.00  0.00     0.252 C 
ATOM     49  H   UNL     1     -48.293  26.956  27.783  1.00  0.00     0.038 H 
ATOM     50  H   UNL     1     -48.315  24.929  25.379  1.00  0.00     0.033 H 
ATOM     51  H   UNL     1     -48.103  24.504  27.141  1.00  0.00     0.033 H 
ATOM     52  F   UNL     1     -45.864  25.950  27.422  1.00  0.00    -0.207 F 
ATOM     53  F   UNL     1     -46.123  26.469  25.281  1.00  0.00    -0.207 F 
ENDBRANCH  43  46
ENDBRANCH  41  43
ENDBRANCH  38  41
ENDBRANCH   6  38
TORSDOF 7
ENDMDL
MODEL 3
REMARK VINA RESULT:     -10.3      1.631      2.228
REMARK SMILES O=C(NCc1ccc2cc(CNC[C@H]3CC3(F)F)[nH]c2c1)c1cc(=O)n2ccccc2n1
REMARK SMILES IDX 5 1 6 2 7 3 8 4 9 5 10 6 19 7 20 8 21 9 4 15 3 18 1 19 2 20
REMARK SMILES IDX 22 22 23 23 32 24 24 25 31 27 25 28 26 29 30 30 27 31 29 32
REMARK SMILES IDX 28 34 11 38 12 41 13 43 14 46 15 47 16 48 17 52 18 53
REMARK H PARENT 6 10 7 11 9 12 19 13 21 14 4 16 4 17 3 21 23 26 30 33 27 35
REMARK H PARENT 29 36 28 37 11 39 11 40 12 42 13 44 13 45 14 49 15 50 15 51
REMARK Flexibility Score: inf
ROOT
ATOM      1  C   UNL     1     -48.086  33.595  25.915  1.00  0.00    -0.027 A 
ATOM      2  C   UNL     1     -46.763  33.734  25.474  1.00  0.00    -0.057 A 
ATOM      3  C   UNL     1     -46.164  32.761  24.662  1.00  0.00    -0.052 A 
ATOM      4  C   UNL     1     -46.908  31.632  24.277  1.00  0.00    -0.000 A 
ATOM      5  C   UNL     1     -46.625  30.483  23.485  1.00  0.00    -0.032 A 
ATOM      6  C   UNL     1     -47.760  29.697  23.451  1.00  0.00     0.030 A 
ATOM      7  N   UNL     1     -48.720  30.342  24.196  1.00  0.00    -0.357 N 
ATOM      8  C   UNL     1     -48.227  31.516  24.711  1.00  0.00     0.046 A 
ATOM      9  C   UNL     1     -48.843  32.477  25.524  1.00  0.00    -0.033 A 
ATOM     10  H   UNL     1     -46.181  34.607  25.762  1.00  0.00     0.063 H 
ATOM     11  H   UNL     1     -45.136  32.881  24.336  1.00  0.00     0.063 H 
ATOM     12  H   UNL     1     -45.688  30.260  22.994  1.00  0.00     0.065 H 
ATOM     13  H   UNL     1     -49.647  29.972  24.361  1.00  0.00     0.166 HD
ATOM     14  H   UNL     1     -49.875  32.362  25.841  1.00  0.00     0.065 H 
ENDROOT
BRANCH   1  15
ATOM     15  C   UNL     1     -48.719  34.668  26.761  1.00  0.00     0.043 C 
ATOM     16  H   UNL     1     -49.590  35.101  26.253  1.00  0.00     0.054 H 
ATOM     17  H   UNL     1     -49.081  34.256  27.710  1.00  0.00     0.054 H 
BRANCH  15  18
ATOM     18  N   UNL     1     -47.776  35.716  27.048  1.00  0.00    -0.347 N 
ATOM     19  O   UNL     1     -48.846  36.490  28.926  1.00  0.00    -0.268 OA
ATOM     20  C   UNL     1     -47.907  36.535  28.140  1.00  0.00     0.270 C 
ATOM     21  H   UNL     1     -46.930  35.809  26.496  1.00  0.00     0.164 HD
BRANCH  20  22
ATOM     22  C   UNL     1     -46.758  37.503  28.276  1.00  0.00     0.136 A 
ATOM     23  C   UNL     1     -46.026  37.405  29.389  1.00  0.00     0.035 A 
ATOM     24  N   UNL     1     -46.533  38.410  27.266  1.00  0.00    -0.225 NA
ATOM     25  C   UNL     1     -44.898  38.328  29.562  1.00  0.00     0.258 A 
ATOM     26  H   UNL     1     -46.213  36.687  30.176  1.00  0.00     0.071 H 
ATOM     27  C   UNL     1     -45.534  39.224  27.423  1.00  0.00     0.140 A 
ATOM     28  O   UNL     1     -44.218  38.246  30.584  1.00  0.00    -0.269 OA
ATOM     29  N   UNL     1     -44.694  39.233  28.531  1.00  0.00    -0.268 N 
ATOM     30  C   UNL     1     -45.254  40.226  26.355  1.00  0.00    -0.019 A 
ATOM     31  C   UNL     1     -43.644  40.141  28.623  1.00  0.00     0.014 A 
ATOM     32  C   UNL     1     -44.232  41.078  26.490  1.00  0.00    -0.057 A 
ATOM     33  H   UNL     1     -45.905  40.226  25.489  1.00  0.00     0.066 H 
ATOM     34  C   UNL     1     -43.397  41.036  27.660  1.00  0.00    -0.045 A 
ATOM     35  H   UNL     1     -43.025  40.091  29.517  1.00  0.00     0.082 H 
ATOM     36  H   UNL     1     -44.013  41.813  25.723  1.00  0.00     0.062 H 
ATOM     37  H   UNL     1     -42.575  41.740  27.743  1.00  0.00     0.064 H 
ENDBRANCH  20  22
ENDBRANCH  15  18
ENDBRANCH   1  15
BRANCH   6  38
ATOM     38  C   UNL     1     -48.038  28.400  22.775  1.00  0.00     0.036 C 
ATOM     39  H   UNL     1     -48.969  28.496  22.204  1.00  0.00     0.049 H 
ATOM     40  H   UNL     1     -47.229  28.181  22.070  1.00  0.00     0.049 H 
BRANCH  38  41
ATOM     41  N   UNL     1     -48.159  27.352  23.781  1.00  0.00    -0.311 NA
ATOM     42  H   UNL     1     -48.925  27.586  24.413  1.00  0.00     0.123 HD
BRANCH  41  43
ATOM     43  C   UNL     1     -46.933  27.144  24.544  1.00  0.00     0.004 C 
ATOM     44  H   UNL     1     -46.629  28.064  25.058  1.00  0.00     0.043 H 
ATOM     45  H   UNL     1     -46.135  26.919  23.827  1.00  0.00     0.043 H 
BRANCH  43  46
ATOM     46  C   UNL     1     -47.078  26.028  25.523  1.00  0.00     0.041 C 
ATOM     47  C   UNL     1     -46.445  26.106  26.900  1.00  0.00     0.021 C 
ATOM     48  C   UNL     1     -47.913  26.230  26.733  1.00  0.00     0.252 C 
ATOM     49  H   UNL     1     -47.167  25.058  25.050  1.00  0.00     0.038 H 
ATOM     50  H   UNL     1     -45.902  27.001  27.175  1.00  0.00     0.033 H 
ATOM     51  H   UNL     1     -46.071  25.191  27.340  1.00  0.00     0.033 H 
ATOM     52  F   UNL     1     -48.746  25.231  27.176  1.00  0.00    -0.207 F 
ATOM     53  F   UNL     1     -48.541  27.429  26.973  1.00  0.00    -0.207 F 
ENDBRANCH  43  46
ENDBRANCH  41  43
ENDBRANCH  38  41
ENDBRANCH   6  38
TORSDOF 7
ENDMDL
MODEL 4
REMARK VINA RESULT:     -10.2      2.461      4.137
REMARK SMILES O=C(NCc1ccc2cc(CNC[C@H]3CC3(F)F)[nH]c2c1)c1cc(=O)n2ccccc2n1
REMARK SMILES IDX 5 1 6 2 7 3 8 4 9 5 10 6 19 7 20 8 21 9 4 15 3 18 1 19 2 20
REMARK SMILES IDX 22 22 23 23 32 24 24 25 31 27 25 28 26 29 30 30 27 31 29 32
REMARK SMILES IDX 28 34 11 38 12 41 13 43 14 46 15 47 16 48 17 52 18 53
REMARK H PARENT 6 10 7 11 9 12 19 13 21 14 4 16 4 17 3 21 23 26 30 33 27 35
REMARK H PARENT 29 36 28 37 11 39 11 40 12 42 13 44 13 45 14 49 15 50 15 51
REMARK Flexibility Score: inf
ROOT
ATOM      1  C   UNL     1     -46.671  36.835  28.301  1.00  0.00    -0.027 A 
ATOM      2  C   UNL     1     -48.046  36.715  28.060  1.00  0.00    -0.057 A 
ATOM      3  C   UNL     1     -48.552  35.697  27.242  1.00  0.00    -0.052 A 
ATOM      4  C   UNL     1     -47.663  34.775  26.661  1.00  0.00    -0.000 A 
ATOM      5  C   UNL     1     -47.825  33.651  25.802  1.00  0.00    -0.032 A 
ATOM      6  C   UNL     1     -46.575  33.117  25.556  1.00  0.00     0.030 A 
ATOM      7  N   UNL     1     -45.666  33.884  26.247  1.00  0.00    -0.357 N 
ATOM      8  C   UNL     1     -46.300  34.899  26.922  1.00  0.00     0.046 A 
ATOM      9  C   UNL     1     -45.776  35.912  27.736  1.00  0.00    -0.033 A 
ATOM     10  H   UNL     1     -48.742  37.420  28.510  1.00  0.00     0.063 H 
ATOM     11  H   UNL     1     -49.619  35.622  27.060  1.00  0.00     0.063 H 
ATOM     12  H   UNL     1     -48.759  33.276  25.407  1.00  0.00     0.065 H 
ATOM     13  H   UNL     1     -44.666  33.731  26.223  1.00  0.00     0.166 HD
ATOM     14  H   UNL     1     -44.708  35.978  27.926  1.00  0.00     0.065 H 
ENDROOT
BRANCH   1  15
ATOM     15  C   UNL     1     -46.153  37.919  29.209  1.00  0.00     0.043 C 
ATOM     16  H   UNL     1     -46.982  38.479  29.659  1.00  0.00     0.054 H 
ATOM     17  H   UNL     1     -45.575  37.493  30.038  1.00  0.00     0.054 H 
BRANCH  15  18
ATOM     18  N   UNL     1     -45.310  38.833  28.487  1.00  0.00    -0.347 N 
ATOM     19  O   UNL     1     -47.002  40.214  27.782  1.00  0.00    -0.268 OA
ATOM     20  C   UNL     1     -45.811  39.936  27.846  1.00  0.00     0.270 C 
ATOM     21  H   UNL     1     -44.300  38.733  28.519  1.00  0.00     0.164 HD
BRANCH  20  22
ATOM     22  C   UNL     1     -44.727  40.786  27.226  1.00  0.00     0.136 A 
ATOM     23  C   UNL     1     -43.586  40.888  27.912  1.00  0.00     0.035 A 
ATOM     24  N   UNL     1     -44.972  41.391  26.015  1.00  0.00    -0.225 NA
ATOM     25  C   UNL     1     -42.506  41.704  27.345  1.00  0.00     0.258 A 
ATOM     26  H   UNL     1     -43.406  40.406  28.864  1.00  0.00     0.071 H 
ATOM     27  C   UNL     1     -44.015  42.112  25.518  1.00  0.00     0.140 A 
ATOM     28  O   UNL     1     -41.451  41.804  27.970  1.00  0.00    -0.269 OA
ATOM     29  N   UNL     1     -42.779  42.305  26.125  1.00  0.00    -0.268 N 
ATOM     30  C   UNL     1     -44.236  42.789  24.208  1.00  0.00    -0.019 A 
ATOM     31  C   UNL     1     -41.803  43.094  25.525  1.00  0.00     0.014 A 
ATOM     32  C   UNL     1     -43.267  43.539  23.671  1.00  0.00    -0.057 A 
ATOM     33  H   UNL     1     -45.197  42.645  23.728  1.00  0.00     0.066 H 
ATOM     34  C   UNL     1     -42.008  43.698  24.349  1.00  0.00    -0.045 A 
ATOM     35  H   UNL     1     -40.859  43.201  26.055  1.00  0.00     0.082 H 
ATOM     36  H   UNL     1     -43.409  44.038  22.719  1.00  0.00     0.062 H 
ATOM     37  H   UNL     1     -41.240  44.312  23.890  1.00  0.00     0.064 H 
ENDBRANCH  20  22
ENDBRANCH  15  18
ENDBRANCH   1  15
BRANCH   6  38
ATOM     38  C   UNL     1     -46.148  31.945  24.744  1.00  0.00     0.036 C 
ATOM     39  H   UNL     1     -45.130  31.666  25.041  1.00  0.00     0.049 H 
ATOM     40  H   UNL     1     -46.808  31.097  24.961  1.00  0.00     0.049 H 
BRANCH  38  41
ATOM     41  N   UNL     1     -46.192  32.300  23.330  1.00  0.00    -0.311 NA
ATOM     42  H   UNL     1     -46.909  33.012  23.190  1.00  0.00     0.123 HD
BRANCH  41  43
ATOM     43  C   UNL     1     -46.450  31.157  22.460  1.00  0.00     0.004 C 
ATOM     44  H   UNL     1     -45.540  30.563  22.311  1.00  0.00     0.043 H 
ATOM     45  H   UNL     1     -46.722  31.552  21.473  1.00  0.00     0.043 H 
BRANCH  43  46
ATOM     46  C   UNL     1     -47.548  30.299  22.993  1.00  0.00     0.041 C 
ATOM     47  C   UNL     1     -48.090  29.131  22.190  1.00  0.00     0.021 C 
ATOM     48  C   UNL     1     -47.247  28.901  23.388  1.00  0.00     0.252 C 
ATOM     49  H   UNL     1     -48.225  30.834  23.647  1.00  0.00     0.038 H 
ATOM     50  H   UNL     1     -47.648  28.911  21.226  1.00  0.00     0.033 H 
ATOM     51  H   UNL     1     -49.144  28.902  22.273  1.00  0.00     0.033 H 
ATOM     52  F   UNL     1     -47.798  28.367  24.528  1.00  0.00    -0.207 F 
ATOM     53  F   UNL     1     -45.981  28.380  23.257  1.00  0.00    -0.207 F 
ENDBRANCH  43  46
ENDBRANCH  41  43
ENDBRANCH  38  41
ENDBRANCH   6  38
TORSDOF 7
ENDMDL
MODEL 5
REMARK VINA RESULT:     -10.1      4.281     11.257
REMARK SMILES O=C(NCc1ccc2cc(CNC[C@H]3CC3(F)F)[nH]c2c1)c1cc(=O)n2ccccc2n1
REMARK SMILES IDX 5 1 6 2 7 3 8 4 9 5 10 6 19 7 20 8 21 9 4 15 3 18 1 19 2 20
REMARK SMILES IDX 22 22 23 23 32 24 24 25 31 27 25 28 26 29 30 30 27 31 29 32
REMARK SMILES IDX 28 34 11 38 12 41 13 43 14 46 15 47 16 48 17 52 18 53
REMARK H PARENT 6 10 7 11 9 12 19 13 21 14 4 16 4 17 3 21 23 26 30 33 27 35
REMARK H PARENT 29 36 28 37 11 39 11 40 12 42 13 44 13 45 14 49 15 50 15 51
REMARK Flexibility Score: inf
ROOT
ATOM      1  C   UNL     1     -46.924  33.577  25.667  1.00  0.00    -0.027 A 
ATOM      2  C   UNL     1     -48.228  34.001  25.954  1.00  0.00    -0.057 A 
ATOM      3  C   UNL     1     -48.480  34.930  26.973  1.00  0.00    -0.052 A 
ATOM      4  C   UNL     1     -47.403  35.450  27.712  1.00  0.00    -0.000 A 
ATOM      5  C   UNL     1     -47.297  36.380  28.785  1.00  0.00    -0.032 A 
ATOM      6  C   UNL     1     -45.961  36.507  29.110  1.00  0.00     0.030 A 
ATOM      7  N   UNL     1     -45.259  35.685  28.260  1.00  0.00    -0.357 N 
ATOM      8  C   UNL     1     -46.111  35.029  27.405  1.00  0.00     0.046 A 
ATOM      9  C   UNL     1     -45.839  34.101  26.391  1.00  0.00    -0.033 A 
ATOM     10  H   UNL     1     -49.067  33.609  25.383  1.00  0.00     0.063 H 
ATOM     11  H   UNL     1     -49.497  35.243  27.186  1.00  0.00     0.063 H 
ATOM     12  H   UNL     1     -48.115  36.898  29.266  1.00  0.00     0.065 H 
ATOM     13  H   UNL     1     -44.255  35.563  28.296  1.00  0.00     0.166 HD
ATOM     14  H   UNL     1     -44.820  33.797  26.171  1.00  0.00     0.065 H 
ENDROOT
BRANCH   1  15
ATOM     15  C   UNL     1     -46.674  32.602  24.547  1.00  0.00     0.043 C 
ATOM     16  H   UNL     1     -47.074  32.985  23.601  1.00  0.00     0.054 H 
ATOM     17  H   UNL     1     -45.599  32.447  24.394  1.00  0.00     0.054 H 
BRANCH  15  18
ATOM     18  N   UNL     1     -47.281  31.329  24.831  1.00  0.00    -0.347 N 
ATOM     19  O   UNL     1     -47.694  30.769  22.644  1.00  0.00    -0.268 OA
ATOM     20  C   UNL     1     -47.723  30.495  23.838  1.00  0.00     0.270 C 
ATOM     21  H   UNL     1     -47.307  30.975  25.782  1.00  0.00     0.164 HD
BRANCH  20  22
ATOM     22  C   UNL     1     -48.249  29.186  24.375  1.00  0.00     0.136 A 
ATOM     23  C   UNL     1     -49.575  29.027  24.363  1.00  0.00     0.035 A 
ATOM     24  N   UNL     1     -47.351  28.250  24.835  1.00  0.00    -0.225 NA
ATOM     25  C   UNL     1     -50.128  27.768  24.877  1.00  0.00     0.258 A 
ATOM     26  H   UNL     1     -50.271  29.770  23.998  1.00  0.00     0.071 H 
ATOM     27  C   UNL     1     -47.844  27.139  25.288  1.00  0.00     0.140 A 
ATOM     28  O   UNL     1     -51.349  27.613  24.870  1.00  0.00    -0.269 OA
ATOM     29  N   UNL     1     -49.202  26.843  25.335  1.00  0.00    -0.268 N 
ATOM     30  C   UNL     1     -46.908  26.097  25.798  1.00  0.00    -0.019 A 
ATOM     31  C   UNL     1     -49.651  25.626  25.838  1.00  0.00     0.014 A 
ATOM     32  C   UNL     1     -47.388  24.941  26.273  1.00  0.00    -0.057 A 
ATOM     33  H   UNL     1     -45.848  26.320  25.767  1.00  0.00     0.066 H 
ATOM     34  C   UNL     1     -48.805  24.695  26.293  1.00  0.00    -0.045 A 
ATOM     35  H   UNL     1     -50.727  25.461  25.844  1.00  0.00     0.082 H 
ATOM     36  H   UNL     1     -46.723  24.171  26.648  1.00  0.00     0.062 H 
ATOM     37  H   UNL     1     -49.167  23.749  26.683  1.00  0.00     0.064 H 
ENDBRANCH  20  22
ENDBRANCH  15  18
ENDBRANCH   1  15
BRANCH   6  38
ATOM     38  C   UNL     1     -45.273  37.339  30.136  1.00  0.00     0.036 C 
ATOM     39  H   UNL     1     -45.739  37.148  31.110  1.00  0.00     0.049 H 
ATOM     40  H   UNL     1     -44.222  37.038  30.198  1.00  0.00     0.049 H 
BRANCH  38  41
ATOM     41  N   UNL     1     -45.398  38.746  29.773  1.00  0.00    -0.311 NA
ATOM     42  H   UNL     1     -46.387  38.974  29.668  1.00  0.00     0.123 HD
BRANCH  41  43
ATOM     43  C   UNL     1     -44.677  39.090  28.552  1.00  0.00     0.004 C 
ATOM     44  H   UNL     1     -44.427  38.191  27.977  1.00  0.00     0.043 H 
ATOM     45  H   UNL     1     -43.721  39.536  28.851  1.00  0.00     0.043 H 
BRANCH  43  46
ATOM     46  C   UNL     1     -45.452  40.046  27.709  1.00  0.00     0.041 C 
ATOM     47  C   UNL     1     -45.051  40.325  26.272  1.00  0.00     0.021 C 
ATOM     48  C   UNL     1     -46.260  39.524  26.580  1.00  0.00     0.252 C 
ATOM     49  H   UNL     1     -45.908  40.844  28.282  1.00  0.00     0.038 H 
ATOM     50  H   UNL     1     -44.203  39.798  25.854  1.00  0.00     0.033 H 
ATOM     51  H   UNL     1     -45.203  41.325  25.887  1.00  0.00     0.033 H 
ATOM     52  F   UNL     1     -47.511  40.036  26.327  1.00  0.00    -0.207 F 
ATOM     53  F   UNL     1     -46.296  38.181  26.290  1.00  0.00    -0.207 F 
ENDBRANCH  43  46
ENDBRANCH  41  43
ENDBRANCH  38  41
ENDBRANCH   6  38
TORSDOF 7
ENDMDL
MODEL 6
REMARK VINA RESULT:     -10.0      1.960      3.182
REMARK SMILES O=C(NCc1ccc2cc(CNC[C@H]3CC3(F)F)[nH]c2c1)c1cc(=O)n2ccccc2n1
REMARK SMILES IDX 5 1 6 2 7 3 8 4 9 5 10 6 19 7 20 8 21 9 4 15 3 18 1 19 2 20
REMARK SMILES IDX 22 22 23 23 32 24 24 25 31 27 25 28 26 29 30 30 27 31 29 32
REMARK SMILES IDX 28 34 11 38 12 41 13 43 14 46 15 47 16 48 17 52 18 53
REMARK H PARENT 6 10 7 11 9 12 19 13 21 14 4 16 4 17 3 21 23 26 30 33 27 35
REMARK H PARENT 29 36 28 37 11 39 11 40 12 42 13 44 13 45 14 49 15 50 15 51
REMARK Flexibility Score: inf
ROOT
ATOM      1  C   UNL     1     -46.667  35.747  28.334  1.00  0.00    -0.027 A 
ATOM      2  C   UNL     1     -48.008  35.868  27.944  1.00  0.00    -0.057 A 
ATOM      3  C   UNL     1     -48.538  35.070  26.921  1.00  0.00    -0.052 A 
ATOM      4  C   UNL     1     -47.713  34.127  26.284  1.00  0.00    -0.000 A 
ATOM      5  C   UNL     1     -47.913  33.182  25.237  1.00  0.00    -0.032 A 
ATOM      6  C   UNL     1     -46.722  32.516  25.029  1.00  0.00     0.030 A 
ATOM      7  N   UNL     1     -45.811  33.028  25.923  1.00  0.00    -0.357 N 
ATOM      8  C   UNL     1     -46.386  34.010  26.693  1.00  0.00     0.046 A 
ATOM      9  C   UNL     1     -45.837  34.799  27.712  1.00  0.00    -0.033 A 
ATOM     10  H   UNL     1     -48.656  36.590  28.435  1.00  0.00     0.063 H 
ATOM     11  H   UNL     1     -49.577  35.180  26.627  1.00  0.00     0.063 H 
ATOM     12  H   UNL     1     -48.834  33.013  24.697  1.00  0.00     0.065 H 
ATOM     13  H   UNL     1     -44.843  32.736  25.971  1.00  0.00     0.166 HD
ATOM     14  H   UNL     1     -44.800  34.680  28.014  1.00  0.00     0.065 H 
ENDROOT
BRANCH   1  15
ATOM     15  C   UNL     1     -46.127  36.593  29.456  1.00  0.00     0.043 C 
ATOM     16  H   UNL     1     -46.929  36.883  30.146  1.00  0.00     0.054 H 
ATOM     17  H   UNL     1     -45.389  36.036  30.048  1.00  0.00     0.054 H 
BRANCH  15  18
ATOM     18  N   UNL     1     -45.497  37.781  28.945  1.00  0.00    -0.347 N 
ATOM     19  O   UNL     1     -44.160  38.149  30.774  1.00  0.00    -0.268 OA
ATOM     20  C   UNL     1     -44.532  38.455  29.647  1.00  0.00     0.270 C 
ATOM     21  H   UNL     1     -45.688  38.095  27.998  1.00  0.00     0.164 HD
BRANCH  20  22
ATOM     22  C   UNL     1     -43.965  39.621  28.875  1.00  0.00     0.136 A 
ATOM     23  C   UNL     1     -42.928  40.255  29.430  1.00  0.00     0.035 A 
ATOM     24  N   UNL     1     -44.535  39.957  27.669  1.00  0.00    -0.225 NA
ATOM     25  C   UNL     1     -42.346  41.395  28.712  1.00  0.00     0.258 A 
ATOM     26  H   UNL     1     -42.488  39.981  30.380  1.00  0.00     0.071 H 
ATOM     27  C   UNL     1     -44.017  40.966  27.037  1.00  0.00     0.140 A 
ATOM     28  O   UNL     1     -41.391  41.985  29.216  1.00  0.00    -0.269 OA
ATOM     29  N   UNL     1     -42.940  41.714  27.500  1.00  0.00    -0.268 N 
ATOM     30  C   UNL     1     -44.604  41.366  25.727  1.00  0.00    -0.019 A 
ATOM     31  C   UNL     1     -42.443  42.783  26.762  1.00  0.00     0.014 A 
ATOM     32  C   UNL     1     -44.091  42.403  25.054  1.00  0.00    -0.057 A 
ATOM     33  H   UNL     1     -45.445  40.789  25.359  1.00  0.00     0.066 H 
ATOM     34  C   UNL     1     -42.974  43.137  25.586  1.00  0.00    -0.045 A 
ATOM     35  H   UNL     1     -41.598  43.324  27.183  1.00  0.00     0.082 H 
ATOM     36  H   UNL     1     -44.505  42.709  24.099  1.00  0.00     0.062 H 
ATOM     37  H   UNL     1     -42.579  43.973  25.018  1.00  0.00     0.064 H 
ENDBRANCH  20  22
ENDBRANCH  15  18
ENDBRANCH   1  15
BRANCH   6  38
ATOM     38  C   UNL     1     -46.356  31.430  24.078  1.00  0.00     0.036 C 
ATOM     39  H   UNL     1     -45.786  31.869  23.250  1.00  0.00     0.049 H 
ATOM     40  H   UNL     1     -45.710  30.707  24.588  1.00  0.00     0.049 H 
BRANCH  38  41
ATOM     41  N   UNL     1     -47.573  30.795  23.585  1.00  0.00    -0.311 NA
ATOM     42  H   UNL     1     -48.381  31.279  23.977  1.00  0.00     0.123 HD
BRANCH  41  43
ATOM     43  C   UNL     1     -47.645  29.372  23.901  1.00  0.00     0.004 C 
ATOM     44  H   UNL     1     -46.657  28.978  24.170  1.00  0.00     0.043 H 
ATOM     45  H   UNL     1     -47.942  28.848  22.985  1.00  0.00     0.043 H 
BRANCH  43  46
ATOM     46  C   UNL     1     -48.625  29.102  24.993  1.00  0.00     0.041 C 
ATOM     47  C   UNL     1     -49.761  28.115  24.798  1.00  0.00     0.021 C 
ATOM     48  C   UNL     1     -48.609  27.782  25.670  1.00  0.00     0.252 C 
ATOM     49  H   UNL     1     -48.788  29.956  25.637  1.00  0.00     0.038 H 
ATOM     50  H   UNL     1     -49.837  27.585  23.858  1.00  0.00     0.033 H 
ATOM     51  H   UNL     1     -50.705  28.325  25.283  1.00  0.00     0.033 H 
ATOM     52  F   UNL     1     -48.774  27.699  27.032  1.00  0.00    -0.207 F 
ATOM     53  F   UNL     1     -47.718  26.802  25.300  1.00  0.00    -0.207 F 
ENDBRANCH  43  46
ENDBRANCH  41  43
ENDBRANCH  38  41
ENDBRANCH   6  38
TORSDOF 7
ENDMDL
MODEL 7
REMARK VINA RESULT:     -10.0      1.686      2.392
REMARK SMILES O=C(NCc1ccc2cc(CNC[C@H]3CC3(F)F)[nH]c2c1)c1cc(=O)n2ccccc2n1
REMARK SMILES IDX 5 1 6 2 7 3 8 4 9 5 10 6 19 7 20 8 21 9 4 15 3 18 1 19 2 20
REMARK SMILES IDX 22 22 23 23 32 24 24 25 31 27 25 28 26 29 30 30 27 31 29 32
REMARK SMILES IDX 28 34 11 38 12 41 13 43 14 46 15 47 16 48 17 52 18 53
REMARK H PARENT 6 10 7 11 9 12 19 13 21 14 4 16 4 17 3 21 23 26 30 33 27 35
REMARK H PARENT 29 36 28 37 11 39 11 40 12 42 13 44 13 45 14 49 15 50 15 51
REMARK Flexibility Score: inf
ROOT
ATOM      1  C   UNL     1     -47.828  35.478  26.835  1.00  0.00    -0.027 A 
ATOM      2  C   UNL     1     -46.580  35.298  26.224  1.00  0.00    -0.057 A 
ATOM      3  C   UNL     1     -46.278  34.122  25.525  1.00  0.00    -0.052 A 
ATOM      4  C   UNL     1     -47.249  33.109  25.430  1.00  0.00    -0.000 A 
ATOM      5  C   UNL     1     -47.281  31.823  24.818  1.00  0.00    -0.032 A 
ATOM      6  C   UNL     1     -48.524  31.268  25.055  1.00  0.00     0.030 A 
ATOM      7  N   UNL     1     -49.242  32.185  25.787  1.00  0.00    -0.357 N 
ATOM      8  C   UNL     1     -48.490  33.308  26.031  1.00  0.00     0.046 A 
ATOM      9  C   UNL     1     -48.809  34.477  26.735  1.00  0.00    -0.033 A 
ATOM     10  H   UNL     1     -45.825  36.079  26.287  1.00  0.00     0.063 H 
ATOM     11  H   UNL     1     -45.304  33.996  25.063  1.00  0.00     0.063 H 
ATOM     12  H   UNL     1     -46.478  31.357  24.265  1.00  0.00     0.065 H 
ATOM     13  H   UNL     1     -50.183  32.025  26.123  1.00  0.00     0.166 HD
ATOM     14  H   UNL     1     -49.788  34.606  27.187  1.00  0.00     0.065 H 
ENDROOT
BRANCH   1  15
ATOM     15  C   UNL     1     -48.141  36.763  27.554  1.00  0.00     0.043 C 
ATOM     16  H   UNL     1     -49.067  37.208  27.171  1.00  0.00     0.054 H 
ATOM     17  H   UNL     1     -48.297  36.585  28.625  1.00  0.00     0.054 H 
BRANCH  15  18
ATOM     18  N   UNL     1     -47.069  37.710  27.401  1.00  0.00    -0.347 N 
ATOM     19  O   UNL     1     -48.367  39.585  27.663  1.00  0.00    -0.268 OA
ATOM     20  C   UNL     1     -47.271  39.062  27.497  1.00  0.00     0.270 C 
ATOM     21  H   UNL     1     -46.110  37.388  27.314  1.00  0.00     0.164 HD
BRANCH  20  22
ATOM     22  C   UNL     1     -45.988  39.847  27.380  1.00  0.00     0.136 A 
ATOM     23  C   UNL     1     -45.068  39.628  28.323  1.00  0.00     0.035 A 
ATOM     24  N   UNL     1     -45.841  40.724  26.330  1.00  0.00    -0.225 NA
ATOM     25  C   UNL     1     -43.804  40.371  28.247  1.00  0.00     0.258 A 
ATOM     26  H   UNL     1     -45.195  38.935  29.144  1.00  0.00     0.071 H 
ATOM     27  C   UNL     1     -44.722  41.380  26.266  1.00  0.00     0.140 A 
ATOM     28  O   UNL     1     -42.951  40.176  29.112  1.00  0.00    -0.269 OA
ATOM     29  N   UNL     1     -43.682  41.249  27.181  1.00  0.00    -0.268 N 
ATOM     30  C   UNL     1     -44.520  42.342  25.146  1.00  0.00    -0.019 A 
ATOM     31  C   UNL     1     -42.513  41.990  27.042  1.00  0.00     0.014 A 
ATOM     32  C   UNL     1     -43.377  43.032  25.056  1.00  0.00    -0.057 A 
ATOM     33  H   UNL     1     -45.326  42.450  24.430  1.00  0.00     0.066 H 
ATOM     34  C   UNL     1     -42.338  42.851  26.034  1.00  0.00    -0.045 A 
ATOM     35  H   UNL     1     -41.740  41.838  27.793  1.00  0.00     0.082 H 
ATOM     36  H   UNL     1     -43.212  43.736  24.248  1.00  0.00     0.062 H 
ATOM     37  H   UNL     1     -41.421  43.424  25.936  1.00  0.00     0.064 H 
ENDBRANCH  20  22
ENDBRANCH  15  18
ENDBRANCH   1  15
BRANCH   6  38
ATOM     38  C   UNL     1     -49.111  29.962  24.649  1.00  0.00     0.036 C 
ATOM     39  H   UNL     1     -49.893  29.691  25.368  1.00  0.00     0.049 H 
ATOM     40  H   UNL     1     -49.579  30.068  23.664  1.00  0.00     0.049 H 
BRANCH  38  41
ATOM     41  N   UNL     1     -48.060  28.951  24.627  1.00  0.00    -0.311 NA
ATOM     42  H   UNL     1     -48.082  28.470  23.728  1.00  0.00     0.123 HD
BRANCH  41  43
ATOM     43  C   UNL     1     -48.176  27.981  25.712  1.00  0.00     0.004 C 
ATOM     44  H   UNL     1     -49.204  27.935  26.090  1.00  0.00     0.043 H 
ATOM     45  H   UNL     1     -47.560  28.345  26.543  1.00  0.00     0.043 H 
BRANCH  43  46
ATOM     46  C   UNL     1     -47.720  26.626  25.285  1.00  0.00     0.041 C 
ATOM     47  C   UNL     1     -46.264  26.359  24.951  1.00  0.00     0.021 C 
ATOM     48  C   UNL     1     -46.865  25.829  26.199  1.00  0.00     0.252 C 
ATOM     49  H   UNL     1     -48.481  26.070  24.753  1.00  0.00     0.038 H 
ATOM     50  H   UNL     1     -45.548  27.165  25.052  1.00  0.00     0.033 H 
ATOM     51  H   UNL     1     -46.045  25.648  24.165  1.00  0.00     0.033 H 
ATOM     52  F   UNL     1     -47.076  24.478  26.345  1.00  0.00    -0.207 F 
ATOM     53  F   UNL     1     -46.476  26.322  27.421  1.00  0.00    -0.207 F 
ENDBRANCH  43  46
ENDBRANCH  41  43
ENDBRANCH  38  41
ENDBRANCH   6  38
TORSDOF 7
ENDMDL
