MODEL 1
REMARK VINA RESULT:      -9.5      0.000      0.000
REMARK SMILES CCc1cc(NCCN(C)C)c2ccc(CCc3cncc(-n4cc([C@@H]5CCCO5)c5c(N)ncnc54)c3)cc2n1
REMARK SMILES IDX 3 1 4 2 5 3 12 4 13 5 14 6 15 7 39 8 40 9 41 10 2 15 1 18
REMARK SMILES IDX 6 22 7 24 8 27 9 30 10 31 11 35 16 39 17 42 18 45 19 46
REMARK SMILES IDX 38 47 20 48 22 50 21 52 23 54 24 55 37 56 25 57 31 59 36 60
REMARK SMILES IDX 32 61 35 62 34 63 26 65 27 66 30 67 28 69 29 72 33 77
REMARK H PARENT 4 11 13 12 14 13 39 14 2 16 2 17 1 19 1 20 1 21 6 23 7 25 7 26
REMARK H PARENT 8 28 8 29 10 32 10 33 10 34 11 36 11 37 11 38 16 40 16 41
REMARK H PARENT 17 43 17 44 19 49 38 51 21 53 24 58 35 64 26 68 27 70 27 71
REMARK H PARENT 28 73 28 74 29 75 29 76 33 78 33 79
REMARK Flexibility Score: inf
ROOT
ATOM      1  C   UNL     1     -46.162  30.303  22.975  1.00  0.00     0.043 A 
ATOM      2  C   UNL     1     -47.258  29.533  23.348  1.00  0.00    -0.017 A 
ATOM      3  C   UNL     1     -48.221  30.054  24.218  1.00  0.00     0.045 A 
ATOM      4  C   UNL     1     -47.979  31.343  24.775  1.00  0.00     0.023 A 
ATOM      5  C   UNL     1     -48.776  31.943  25.784  1.00  0.00    -0.050 A 
ATOM      6  C   UNL     1     -48.461  33.192  26.325  1.00  0.00    -0.058 A 
ATOM      7  C   UNL     1     -47.353  33.891  25.854  1.00  0.00    -0.045 A 
ATOM      8  C   UNL     1     -46.594  33.322  24.819  1.00  0.00    -0.032 A 
ATOM      9  C   UNL     1     -46.857  32.060  24.307  1.00  0.00     0.073 A 
ATOM     10  N   UNL     1     -45.988  31.563  23.419  1.00  0.00    -0.253 NA
ATOM     11  H   UNL     1     -47.338  28.531  22.943  1.00  0.00     0.066 H 
ATOM     12  H   UNL     1     -49.631  31.414  26.199  1.00  0.00     0.063 H 
ATOM     13  H   UNL     1     -49.070  33.596  27.131  1.00  0.00     0.063 H 
ATOM     14  H   UNL     1     -45.711  33.844  24.449  1.00  0.00     0.065 H 
ENDROOT
BRANCH   1  15
ATOM     15  C   UNL     1     -45.126  29.712  22.047  1.00  0.00    -0.013 C 
ATOM     16  H   UNL     1     -45.596  29.528  21.074  1.00  0.00     0.033 H 
ATOM     17  H   UNL     1     -44.330  30.453  21.898  1.00  0.00     0.033 H 
BRANCH  15  18
ATOM     18  C   UNL     1     -44.501  28.411  22.534  1.00  0.00    -0.060 C 
ATOM     19  H   UNL     1     -43.558  28.205  22.017  1.00  0.00     0.023 H 
ATOM     20  H   UNL     1     -44.297  28.446  23.609  1.00  0.00     0.023 H 
ATOM     21  H   UNL     1     -45.180  27.573  22.345  1.00  0.00     0.023 H 
ENDBRANCH  15  18
ENDBRANCH   1  15
BRANCH   3  22
ATOM     22  N   UNL     1     -49.333  29.299  24.646  1.00  0.00    -0.383 N 
ATOM     23  H   UNL     1     -49.850  28.954  23.839  1.00  0.00     0.160 HD
BRANCH  22  24
ATOM     24  C   UNL     1     -49.196  28.253  25.666  1.00  0.00     0.027 C 
ATOM     25  H   UNL     1     -48.794  28.732  26.567  1.00  0.00     0.050 H 
ATOM     26  H   UNL     1     -50.172  27.845  25.952  1.00  0.00     0.050 H 
BRANCH  24  27
ATOM     27  C   UNL     1     -48.207  27.155  25.212  1.00  0.00     0.015 C 
ATOM     28  H   UNL     1     -48.094  27.190  24.122  1.00  0.00     0.045 H 
ATOM     29  H   UNL     1     -47.209  27.409  25.597  1.00  0.00     0.045 H 
BRANCH  27  30
ATOM     30  N   UNL     1     -48.504  25.763  25.591  1.00  0.00    -0.308 NA
BRANCH  30  31
ATOM     31  C   UNL     1     -47.556  25.226  26.563  1.00  0.00    -0.014 C 
ATOM     32  H   UNL     1     -48.019  24.432  27.159  1.00  0.00     0.039 H 
ATOM     33  H   UNL     1     -46.653  24.823  26.090  1.00  0.00     0.039 H 
ATOM     34  H   UNL     1     -47.249  26.007  27.266  1.00  0.00     0.039 H 
ENDBRANCH  30  31
BRANCH  30  35
ATOM     35  C   UNL     1     -49.880  25.588  26.048  1.00  0.00    -0.014 C 
ATOM     36  H   UNL     1     -49.894  25.170  27.060  1.00  0.00     0.039 H 
ATOM     37  H   UNL     1     -50.442  26.528  26.062  1.00  0.00     0.039 H 
ATOM     38  H   UNL     1     -50.413  24.875  25.408  1.00  0.00     0.039 H 
ENDBRANCH  30  35
ENDBRANCH  27  30
ENDBRANCH  24  27
ENDBRANCH  22  24
ENDBRANCH   3  22
BRANCH   7  39
ATOM     39  C   UNL     1     -46.891  35.169  26.520  1.00  0.00    -0.024 C 
ATOM     40  H   UNL     1     -46.832  35.958  25.759  1.00  0.00     0.032 H 
ATOM     41  H   UNL     1     -45.869  35.037  26.898  1.00  0.00     0.032 H 
BRANCH  39  42
ATOM     42  C   UNL     1     -47.825  35.637  27.658  1.00  0.00    -0.022 C 
ATOM     43  H   UNL     1     -48.849  35.311  27.433  1.00  0.00     0.032 H 
ATOM     44  H   UNL     1     -47.555  35.147  28.602  1.00  0.00     0.032 H 
BRANCH  42  45
ATOM     45  C   UNL     1     -47.818  37.133  27.856  1.00  0.00    -0.027 A 
ATOM     46  C   UNL     1     -48.991  37.856  27.994  1.00  0.00     0.030 A 
ATOM     47  C   UNL     1     -46.619  37.857  27.789  1.00  0.00    -0.032 A 
ATOM     48  N   UNL     1     -49.039  39.204  28.044  1.00  0.00    -0.262 NA
ATOM     49  H   UNL     1     -49.960  37.366  28.049  1.00  0.00     0.084 H 
ATOM     50  C   UNL     1     -46.628  39.257  27.749  1.00  0.00     0.066 A 
ATOM     51  H   UNL     1     -45.702  37.291  27.669  1.00  0.00     0.065 H 
ATOM     52  C   UNL     1     -47.864  39.874  27.898  1.00  0.00     0.051 A 
ATOM     53  H   UNL     1     -47.996  40.949  27.911  1.00  0.00     0.086 H 
BRANCH  50  54
ATOM     54  N   UNL     1     -45.426  39.991  27.485  1.00  0.00    -0.299 N 
ATOM     55  C   UNL     1     -45.225  40.819  26.390  1.00  0.00     0.018 A 
ATOM     56  C   UNL     1     -44.276  40.064  28.268  1.00  0.00     0.150 A 
ATOM     57  C   UNL     1     -44.005  41.463  26.484  1.00  0.00     0.012 A 
ATOM     58  H   UNL     1     -45.974  40.911  25.619  1.00  0.00     0.083 H 
ATOM     59  C   UNL     1     -43.402  40.981  27.688  1.00  0.00     0.067 A 
ATOM     60  N   UNL     1     -44.041  39.400  29.419  1.00  0.00    -0.218 NA
ATOM     61  C   UNL     1     -42.195  41.227  28.366  1.00  0.00     0.136 A 
ATOM     62  C   UNL     1     -42.863  39.719  29.971  1.00  0.00     0.120 A 
ATOM     63  N   UNL     1     -41.940  40.578  29.515  1.00  0.00    -0.219 NA
ATOM     64  H   UNL     1     -42.625  39.219  30.906  1.00  0.00     0.106 H 
BRANCH  57  65
ATOM     65  C   UNL     1     -43.410  42.484  25.548  1.00  0.00     0.085 C 
ATOM     66  C   UNL     1     -43.553  43.942  25.967  1.00  0.00    -0.020 C 
ATOM     67  O   UNL     1     -44.055  42.398  24.253  1.00  0.00    -0.373 OA
ATOM     68  H   UNL     1     -42.350  42.238  25.412  1.00  0.00     0.066 H 
ATOM     69  C   UNL     1     -44.885  44.322  25.371  1.00  0.00    -0.027 C 
ATOM     70  H   UNL     1     -43.478  44.131  27.040  1.00  0.00     0.030 H 
ATOM     71  H   UNL     1     -42.775  44.536  25.474  1.00  0.00     0.030 H 
ATOM     72  C   UNL     1     -44.861  43.571  24.059  1.00  0.00     0.048 C 
ATOM     73  H   UNL     1     -45.703  43.956  26.002  1.00  0.00     0.029 H 
ATOM     74  H   UNL     1     -45.014  45.400  25.240  1.00  0.00     0.029 H 
ATOM     75  H   UNL     1     -44.392  44.168  23.270  1.00  0.00     0.057 H 
ATOM     76  H   UNL     1     -45.860  43.278  23.726  1.00  0.00     0.057 H 
ENDBRANCH  57  65
BRANCH  61  77
ATOM     77  N   UNL     1     -41.219  42.104  27.905  1.00  0.00    -0.383 N 
ATOM     78  H   UNL     1     -40.527  42.319  28.625  1.00  0.00     0.158 HD
ATOM     79  H   UNL     1     -41.656  42.909  27.474  1.00  0.00     0.158 HD
ENDBRANCH  61  77
ENDBRANCH  50  54
ENDBRANCH  42  45
ENDBRANCH  39  42
ENDBRANCH   7  39
TORSDOF 14
ENDMDL
MODEL 2
REMARK VINA RESULT:      -9.4      3.367     12.656
REMARK SMILES CCc1cc(NCCN(C)C)c2ccc(CCc3cncc(-n4cc([C@@H]5CCCO5)c5c(N)ncnc54)c3)cc2n1
REMARK SMILES IDX 3 1 4 2 5 3 12 4 13 5 14 6 15 7 39 8 40 9 41 10 2 15 1 18
REMARK SMILES IDX 6 22 7 24 8 27 9 30 10 31 11 35 16 39 17 42 18 45 19 46
REMARK SMILES IDX 38 47 20 48 22 50 21 52 23 54 24 55 37 56 25 57 31 59 36 60
REMARK SMILES IDX 32 61 35 62 34 63 26 65 27 66 30 67 28 69 29 72 33 77
REMARK H PARENT 4 11 13 12 14 13 39 14 2 16 2 17 1 19 1 20 1 21 6 23 7 25 7 26
REMARK H PARENT 8 28 8 29 10 32 10 33 10 34 11 36 11 37 11 38 16 40 16 41
REMARK H PARENT 17 43 17 44 19 49 38 51 21 53 24 58 35 64 26 68 27 70 27 71
REMARK H PARENT 28 73 28 74 29 75 29 76 33 78 33 79
REMARK Flexibility Score: inf
ROOT
ATOM      1  C   UNL     1     -43.396  41.234  27.869  1.00  0.00     0.043 A 
ATOM      2  C   UNL     1     -44.258  41.979  27.072  1.00  0.00    -0.017 A 
ATOM      3  C   UNL     1     -45.450  41.416  26.608  1.00  0.00     0.045 A 
ATOM      4  C   UNL     1     -45.688  40.040  26.895  1.00  0.00     0.023 A 
ATOM      5  C   UNL     1     -46.769  39.287  26.369  1.00  0.00    -0.050 A 
ATOM      6  C   UNL     1     -46.922  37.926  26.651  1.00  0.00    -0.058 A 
ATOM      7  C   UNL     1     -46.014  37.286  27.488  1.00  0.00    -0.045 A 
ATOM      8  C   UNL     1     -44.974  38.043  28.052  1.00  0.00    -0.032 A 
ATOM      9  C   UNL     1     -44.772  39.380  27.741  1.00  0.00     0.073 A 
ATOM     10  N   UNL     1     -43.672  39.965  28.229  1.00  0.00    -0.253 NA
ATOM     11  H   UNL     1     -43.975  42.997  26.831  1.00  0.00     0.066 H 
ATOM     12  H   UNL     1     -47.480  39.745  25.686  1.00  0.00     0.063 H 
ATOM     13  H   UNL     1     -47.737  37.373  26.189  1.00  0.00     0.063 H 
ATOM     14  H   UNL     1     -44.241  37.556  28.695  1.00  0.00     0.065 H 
ENDROOT
BRANCH   1  15
ATOM     15  C   UNL     1     -42.105  41.858  28.346  1.00  0.00    -0.013 C 
ATOM     16  H   UNL     1     -41.326  41.654  27.601  1.00  0.00     0.033 H 
ATOM     17  H   UNL     1     -42.242  42.945  28.397  1.00  0.00     0.033 H 
BRANCH  15  18
ATOM     18  C   UNL     1     -41.618  41.359  29.701  1.00  0.00    -0.060 C 
ATOM     19  H   UNL     1     -40.676  40.810  29.607  1.00  0.00     0.023 H 
ATOM     20  H   UNL     1     -41.459  42.189  30.396  1.00  0.00     0.023 H 
ATOM     21  H   UNL     1     -42.359  40.685  30.142  1.00  0.00     0.023 H 
ENDBRANCH  15  18
ENDBRANCH   1  15
BRANCH   3  22
ATOM     22  N   UNL     1     -46.340  42.124  25.773  1.00  0.00    -0.383 N 
ATOM     23  H   UNL     1     -47.294  41.805  25.933  1.00  0.00     0.160 HD
BRANCH  22  24
ATOM     24  C   UNL     1     -46.288  43.587  25.672  1.00  0.00     0.027 C 
ATOM     25  H   UNL     1     -45.917  43.963  26.633  1.00  0.00     0.050 H 
ATOM     26  H   UNL     1     -45.559  43.909  24.921  1.00  0.00     0.050 H 
BRANCH  24  27
ATOM     27  C   UNL     1     -47.694  44.181  25.423  1.00  0.00     0.015 C 
ATOM     28  H   UNL     1     -47.619  45.270  25.318  1.00  0.00     0.045 H 
ATOM     29  H   UNL     1     -48.045  43.837  24.440  1.00  0.00     0.045 H 
BRANCH  27  30
ATOM     30  N   UNL     1     -48.746  43.893  26.413  1.00  0.00    -0.308 NA
BRANCH  30  31
ATOM     31  C   UNL     1     -49.061  45.042  27.256  1.00  0.00    -0.014 C 
ATOM     32  H   UNL     1     -49.842  45.659  26.796  1.00  0.00     0.039 H 
ATOM     33  H   UNL     1     -49.395  44.750  28.258  1.00  0.00     0.039 H 
ATOM     34  H   UNL     1     -48.181  45.685  27.368  1.00  0.00     0.039 H 
ENDBRANCH  30  31
BRANCH  30  35
ATOM     35  C   UNL     1     -49.953  43.341  25.804  1.00  0.00    -0.014 C 
ATOM     36  H   UNL     1     -49.876  42.251  25.726  1.00  0.00     0.039 H 
ATOM     37  H   UNL     1     -50.858  43.577  26.373  1.00  0.00     0.039 H 
ATOM     38  H   UNL     1     -50.078  43.719  24.782  1.00  0.00     0.039 H 
ENDBRANCH  30  35
ENDBRANCH  27  30
ENDBRANCH  24  27
ENDBRANCH  22  24
ENDBRANCH   3  22
BRANCH   7  39
ATOM     39  C   UNL     1     -46.057  35.787  27.691  1.00  0.00    -0.024 C 
ATOM     40  H   UNL     1     -46.937  35.541  28.299  1.00  0.00     0.032 H 
ATOM     41  H   UNL     1     -45.186  35.471  28.279  1.00  0.00     0.032 H 
BRANCH  39  42
ATOM     42  C   UNL     1     -46.123  34.994  26.367  1.00  0.00    -0.022 C 
ATOM     43  H   UNL     1     -45.951  35.683  25.531  1.00  0.00     0.032 H 
ATOM     44  H   UNL     1     -45.311  34.257  26.321  1.00  0.00     0.032 H 
BRANCH  42  45
ATOM     45  C   UNL     1     -47.442  34.290  26.160  1.00  0.00    -0.027 A 
ATOM     46  C   UNL     1     -48.613  34.752  26.739  1.00  0.00     0.030 A 
ATOM     47  C   UNL     1     -47.502  33.073  25.466  1.00  0.00    -0.032 A 
ATOM     48  N   UNL     1     -49.787  34.088  26.687  1.00  0.00    -0.262 NA
ATOM     49  H   UNL     1     -48.645  35.686  27.294  1.00  0.00     0.084 H 
ATOM     50  C   UNL     1     -48.676  32.308  25.462  1.00  0.00     0.066 A 
ATOM     51  H   UNL     1     -46.582  32.706  25.025  1.00  0.00     0.065 H 
ATOM     52  C   UNL     1     -49.788  32.874  26.072  1.00  0.00     0.051 A 
ATOM     53  H   UNL     1     -50.757  32.392  26.110  1.00  0.00     0.086 H 
BRANCH  50  54
ATOM     54  N   UNL     1     -48.683  30.980  24.924  1.00  0.00    -0.299 N 
ATOM     55  C   UNL     1     -48.685  29.816  25.679  1.00  0.00     0.018 A 
ATOM     56  C   UNL     1     -48.739  30.597  23.584  1.00  0.00     0.150 A 
ATOM     57  C   UNL     1     -48.802  28.706  24.862  1.00  0.00     0.012 A 
ATOM     58  H   UNL     1     -48.620  29.853  26.755  1.00  0.00     0.083 H 
ATOM     59  C   UNL     1     -48.840  29.209  23.524  1.00  0.00     0.067 A 
ATOM     60  N   UNL     1     -48.739  31.415  22.512  1.00  0.00    -0.218 NA
ATOM     61  C   UNL     1     -48.957  28.634  22.247  1.00  0.00     0.136 A 
ATOM     62  C   UNL     1     -48.857  30.754  21.354  1.00  0.00     0.120 A 
ATOM     63  N   UNL     1     -48.960  29.430  21.163  1.00  0.00    -0.219 NA
ATOM     64  H   UNL     1     -48.870  31.364  20.456  1.00  0.00     0.106 H 
BRANCH  57  65
ATOM     65  C   UNL     1     -48.898  27.256  25.263  1.00  0.00     0.085 C 
ATOM     66  C   UNL     1     -48.835  26.967  26.757  1.00  0.00    -0.020 C 
ATOM     67  O   UNL     1     -47.795  26.513  24.688  1.00  0.00    -0.373 OA
ATOM     68  H   UNL     1     -49.828  26.852  24.845  1.00  0.00     0.066 H 
ATOM     69  C   UNL     1     -47.352  26.830  26.999  1.00  0.00    -0.027 C 
ATOM     70  H   UNL     1     -49.321  27.705  27.399  1.00  0.00     0.030 H 
ATOM     71  H   UNL     1     -49.306  25.998  26.957  1.00  0.00     0.030 H 
ATOM     72  C   UNL     1     -46.899  26.125  25.741  1.00  0.00     0.048 C 
ATOM     73  H   UNL     1     -46.885  27.819  27.068  1.00  0.00     0.029 H 
ATOM     74  H   UNL     1     -47.107  26.274  27.909  1.00  0.00     0.029 H 
ATOM     75  H   UNL     1     -46.969  25.037  25.850  1.00  0.00     0.057 H 
ATOM     76  H   UNL     1     -45.874  26.381  25.463  1.00  0.00     0.057 H 
ENDBRANCH  57  65
BRANCH  61  77
ATOM     77  N   UNL     1     -49.053  27.265  22.025  1.00  0.00    -0.383 N 
ATOM     78  H   UNL     1     -49.333  27.050  21.067  1.00  0.00     0.158 HD
ATOM     79  H   UNL     1     -49.622  26.839  22.746  1.00  0.00     0.158 HD
ENDBRANCH  61  77
ENDBRANCH  50  54
ENDBRANCH  42  45
ENDBRANCH  39  42
ENDBRANCH   7  39
TORSDOF 14
ENDMDL
MODEL 3
REMARK VINA RESULT:      -9.0      2.937     12.358
REMARK SMILES CCc1cc(NCCN(C)C)c2ccc(CCc3cncc(-n4cc([C@@H]5CCCO5)c5c(N)ncnc54)c3)cc2n1
REMARK SMILES IDX 3 1 4 2 5 3 12 4 13 5 14 6 15 7 39 8 40 9 41 10 2 15 1 18
REMARK SMILES IDX 6 22 7 24 8 27 9 30 10 31 11 35 16 39 17 42 18 45 19 46
REMARK SMILES IDX 38 47 20 48 22 50 21 52 23 54 24 55 37 56 25 57 31 59 36 60
REMARK SMILES IDX 32 61 35 62 34 63 26 65 27 66 30 67 28 69 29 72 33 77
REMARK H PARENT 4 11 13 12 14 13 39 14 2 16 2 17 1 19 1 20 1 21 6 23 7 25 7 26
REMARK H PARENT 8 28 8 29 10 32 10 33 10 34 11 36 11 37 11 38 16 40 16 41
REMARK H PARENT 17 43 17 44 19 49 38 51 21 53 24 58 35 64 26 68 27 70 27 71
REMARK H PARENT 28 73 28 74 29 75 29 76 33 78 33 79
REMARK Flexibility Score: inf
ROOT
ATOM      1  C   UNL     1     -42.809  41.314  28.307  1.00  0.00     0.043 A 
ATOM      2  C   UNL     1     -43.170  42.240  27.335  1.00  0.00    -0.017 A 
ATOM      3  C   UNL     1     -44.368  42.090  26.632  1.00  0.00     0.045 A 
ATOM      4  C   UNL     1     -45.137  40.915  26.877  1.00  0.00     0.023 A 
ATOM      5  C   UNL     1     -46.290  40.542  26.140  1.00  0.00    -0.050 A 
ATOM      6  C   UNL     1     -46.975  39.352  26.398  1.00  0.00    -0.058 A 
ATOM      7  C   UNL     1     -46.542  38.510  27.418  1.00  0.00    -0.045 A 
ATOM      8  C   UNL     1     -45.431  38.904  28.183  1.00  0.00    -0.032 A 
ATOM      9  C   UNL     1     -44.705  40.053  27.908  1.00  0.00     0.073 A 
ATOM     10  N   UNL     1     -43.587  40.258  28.614  1.00  0.00    -0.253 NA
ATOM     11  H   UNL     1     -42.498  43.070  27.148  1.00  0.00     0.066 H 
ATOM     12  H   UNL     1     -46.640  41.158  25.315  1.00  0.00     0.063 H 
ATOM     13  H   UNL     1     -47.826  39.079  25.778  1.00  0.00     0.063 H 
ATOM     14  H   UNL     1     -45.064  38.250  28.974  1.00  0.00     0.065 H 
ENDROOT
BRANCH   1  15
ATOM     15  C   UNL     1     -41.500  41.487  29.043  1.00  0.00    -0.013 C 
ATOM     16  H   UNL     1     -40.687  41.142  28.393  1.00  0.00     0.033 H 
ATOM     17  H   UNL     1     -41.345  42.557  29.230  1.00  0.00     0.033 H 
BRANCH  15  18
ATOM     18  C   UNL     1     -41.409  40.738  30.367  1.00  0.00    -0.060 C 
ATOM     19  H   UNL     1     -41.680  39.684  30.246  1.00  0.00     0.023 H 
ATOM     20  H   UNL     1     -40.397  40.783  30.781  1.00  0.00     0.023 H 
ATOM     21  H   UNL     1     -42.094  41.181  31.097  1.00  0.00     0.023 H 
ENDBRANCH  15  18
ENDBRANCH   1  15
BRANCH   3  22
ATOM     22  N   UNL     1     -44.761  42.988  25.617  1.00  0.00    -0.383 N 
ATOM     23  H   UNL     1     -44.824  43.933  25.994  1.00  0.00     0.160 HD
BRANCH  22  24
ATOM     24  C   UNL     1     -44.101  42.992  24.306  1.00  0.00     0.027 C 
ATOM     25  H   UNL     1     -43.589  42.028  24.202  1.00  0.00     0.050 H 
ATOM     26  H   UNL     1     -44.833  43.033  23.492  1.00  0.00     0.050 H 
BRANCH  24  27
ATOM     27  C   UNL     1     -43.048  44.120  24.213  1.00  0.00     0.015 C 
ATOM     28  H   UNL     1     -42.839  44.511  25.216  1.00  0.00     0.045 H 
ATOM     29  H   UNL     1     -42.096  43.677  23.890  1.00  0.00     0.045 H 
BRANCH  27  30
ATOM     30  N   UNL     1     -43.344  45.264  23.333  1.00  0.00    -0.308 NA
BRANCH  30  31
ATOM     31  C   UNL     1     -42.965  45.023  21.944  1.00  0.00    -0.014 C 
ATOM     32  H   UNL     1     -43.239  44.007  21.639  1.00  0.00     0.039 H 
ATOM     33  H   UNL     1     -43.433  45.731  21.252  1.00  0.00     0.039 H 
ATOM     34  H   UNL     1     -41.879  45.103  21.827  1.00  0.00     0.039 H 
ENDBRANCH  30  31
BRANCH  30  35
ATOM     35  C   UNL     1     -44.733  45.702  23.431  1.00  0.00    -0.014 C 
ATOM     36  H   UNL     1     -45.113  45.537  24.445  1.00  0.00     0.039 H 
ATOM     37  H   UNL     1     -44.859  46.763  23.191  1.00  0.00     0.039 H 
ATOM     38  H   UNL     1     -45.372  45.117  22.760  1.00  0.00     0.039 H 
ENDBRANCH  30  35
ENDBRANCH  27  30
ENDBRANCH  24  27
ENDBRANCH  22  24
ENDBRANCH   3  22
BRANCH   7  39
ATOM     39  C   UNL     1     -47.159  37.145  27.624  1.00  0.00    -0.024 C 
ATOM     40  H   UNL     1     -48.183  37.277  27.998  1.00  0.00     0.032 H 
ATOM     41  H   UNL     1     -46.616  36.611  28.414  1.00  0.00     0.032 H 
BRANCH  39  42
ATOM     42  C   UNL     1     -47.201  36.293  26.336  1.00  0.00    -0.022 C 
ATOM     43  H   UNL     1     -48.154  36.473  25.822  1.00  0.00     0.032 H 
ATOM     44  H   UNL     1     -46.418  36.615  25.638  1.00  0.00     0.032 H 
BRANCH  42  45
ATOM     45  C   UNL     1     -47.056  34.813  26.596  1.00  0.00    -0.027 A 
ATOM     46  C   UNL     1     -46.435  34.331  27.737  1.00  0.00     0.030 A 
ATOM     47  C   UNL     1     -47.445  33.876  25.629  1.00  0.00    -0.032 A 
ATOM     48  N   UNL     1     -46.170  33.025  27.950  1.00  0.00    -0.262 NA
ATOM     49  H   UNL     1     -46.103  34.996  28.529  1.00  0.00     0.084 H 
ATOM     50  C   UNL     1     -47.112  32.522  25.767  1.00  0.00     0.066 A 
ATOM     51  H   UNL     1     -47.920  34.256  24.730  1.00  0.00     0.065 H 
ATOM     52  C   UNL     1     -46.492  32.155  26.955  1.00  0.00     0.051 A 
ATOM     53  H   UNL     1     -46.210  31.135  27.189  1.00  0.00     0.086 H 
BRANCH  50  54
ATOM     54  N   UNL     1     -47.334  31.600  24.694  1.00  0.00    -0.299 N 
ATOM     55  C   UNL     1     -46.810  31.726  23.415  1.00  0.00     0.018 A 
ATOM     56  C   UNL     1     -48.051  30.404  24.724  1.00  0.00     0.150 A 
ATOM     57  C   UNL     1     -47.122  30.618  22.649  1.00  0.00     0.012 A 
ATOM     58  H   UNL     1     -46.232  32.593  23.137  1.00  0.00     0.083 H 
ATOM     59  C   UNL     1     -47.912  29.773  23.490  1.00  0.00     0.067 A 
ATOM     60  N   UNL     1     -48.737  29.903  25.771  1.00  0.00    -0.218 NA
ATOM     61  C   UNL     1     -48.531  28.520  23.343  1.00  0.00     0.136 A 
ATOM     62  C   UNL     1     -49.279  28.706  25.512  1.00  0.00     0.120 A 
ATOM     63  N   UNL     1     -49.219  27.999  24.374  1.00  0.00    -0.219 NA
ATOM     64  H   UNL     1     -49.837  28.250  26.324  1.00  0.00     0.106 H 
BRANCH  57  65
ATOM     65  C   UNL     1     -46.712  30.316  21.230  1.00  0.00     0.085 C 
ATOM     66  C   UNL     1     -45.786  31.330  20.569  1.00  0.00    -0.020 C 
ATOM     67  O   UNL     1     -47.884  30.264  20.380  1.00  0.00    -0.373 OA
ATOM     68  H   UNL     1     -46.245  29.324  21.219  1.00  0.00     0.066 H 
ATOM     69  C   UNL     1     -46.759  32.315  19.970  1.00  0.00    -0.027 C 
ATOM     70  H   UNL     1     -45.043  31.786  21.227  1.00  0.00     0.030 H 
ATOM     71  H   UNL     1     -45.244  30.843  19.751  1.00  0.00     0.030 H 
ATOM     72  C   UNL     1     -47.873  31.404  19.507  1.00  0.00     0.048 C 
ATOM     73  H   UNL     1     -47.127  33.002  20.740  1.00  0.00     0.029 H 
ATOM     74  H   UNL     1     -46.333  32.911  19.158  1.00  0.00     0.029 H 
ATOM     75  H   UNL     1     -47.690  31.041  18.490  1.00  0.00     0.057 H 
ATOM     76  H   UNL     1     -48.850  31.893  19.530  1.00  0.00     0.057 H 
ENDBRANCH  57  65
BRANCH  61  77
ATOM     77  N   UNL     1     -48.492  27.776  22.169  1.00  0.00    -0.383 N 
ATOM     78  H   UNL     1     -47.954  26.915  22.279  1.00  0.00     0.158 HD
ATOM     79  H   UNL     1     -48.207  28.366  21.397  1.00  0.00     0.158 HD
ENDBRANCH  61  77
ENDBRANCH  50  54
ENDBRANCH  42  45
ENDBRANCH  39  42
ENDBRANCH   7  39
TORSDOF 14
ENDMDL
MODEL 4
REMARK VINA RESULT:      -8.8      1.863      3.196
REMARK SMILES CCc1cc(NCCN(C)C)c2ccc(CCc3cncc(-n4cc([C@@H]5CCCO5)c5c(N)ncnc54)c3)cc2n1
REMARK SMILES IDX 3 1 4 2 5 3 12 4 13 5 14 6 15 7 39 8 40 9 41 10 2 15 1 18
REMARK SMILES IDX 6 22 7 24 8 27 9 30 10 31 11 35 16 39 17 42 18 45 19 46
REMARK SMILES IDX 38 47 20 48 22 50 21 52 23 54 24 55 37 56 25 57 31 59 36 60
REMARK SMILES IDX 32 61 35 62 34 63 26 65 27 66 30 67 28 69 29 72 33 77
REMARK H PARENT 4 11 13 12 14 13 39 14 2 16 2 17 1 19 1 20 1 21 6 23 7 25 7 26
REMARK H PARENT 8 28 8 29 10 32 10 33 10 34 11 36 11 37 11 38 16 40 16 41
REMARK H PARENT 17 43 17 44 19 49 38 51 21 53 24 58 35 64 26 68 27 70 27 71
REMARK H PARENT 28 73 28 74 29 75 29 76 33 78 33 79
REMARK Flexibility Score: inf
ROOT
ATOM      1  C   UNL     1     -46.382  30.466  22.769  1.00  0.00     0.043 A 
ATOM      2  C   UNL     1     -47.602  29.813  22.897  1.00  0.00    -0.017 A 
ATOM      3  C   UNL     1     -48.587  30.323  23.748  1.00  0.00     0.045 A 
ATOM      4  C   UNL     1     -48.252  31.460  24.540  1.00  0.00     0.023 A 
ATOM      5  C   UNL     1     -49.081  32.002  25.556  1.00  0.00    -0.050 A 
ATOM      6  C   UNL     1     -48.677  33.092  26.331  1.00  0.00    -0.058 A 
ATOM      7  C   UNL     1     -47.442  33.690  26.096  1.00  0.00    -0.045 A 
ATOM      8  C   UNL     1     -46.644  33.188  25.055  1.00  0.00    -0.032 A 
ATOM      9  C   UNL     1     -47.002  32.073  24.311  1.00  0.00     0.073 A 
ATOM     10  N   UNL     1     -46.104  31.602  23.438  1.00  0.00    -0.253 NA
ATOM     11  H   UNL     1     -47.759  28.909  22.321  1.00  0.00     0.066 H 
ATOM     12  H   UNL     1     -50.038  31.543  25.790  1.00  0.00     0.063 H 
ATOM     13  H   UNL     1     -49.321  33.447  27.132  1.00  0.00     0.063 H 
ATOM     14  H   UNL     1     -45.665  33.629  24.867  1.00  0.00     0.065 H 
ENDROOT
BRANCH   1  15
ATOM     15  C   UNL     1     -45.325  29.886  21.856  1.00  0.00    -0.013 C 
ATOM     16  H   UNL     1     -45.805  29.583  20.918  1.00  0.00     0.033 H 
ATOM     17  H   UNL     1     -44.600  30.674  21.620  1.00  0.00     0.033 H 
BRANCH  15  18
ATOM     18  C   UNL     1     -44.580  28.686  22.426  1.00  0.00    -0.060 C 
ATOM     19  H   UNL     1     -44.999  27.745  22.054  1.00  0.00     0.023 H 
ATOM     20  H   UNL     1     -43.519  28.714  22.160  1.00  0.00     0.023 H 
ATOM     21  H   UNL     1     -44.655  28.679  23.518  1.00  0.00     0.023 H 
ENDBRANCH  15  18
ENDBRANCH   1  15
BRANCH   3  22
ATOM     22  N   UNL     1     -49.828  29.679  23.932  1.00  0.00    -0.383 N 
ATOM     23  H   UNL     1     -50.589  30.342  23.792  1.00  0.00     0.160 HD
BRANCH  22  24
ATOM     24  C   UNL     1     -50.125  28.398  23.280  1.00  0.00     0.027 C 
ATOM     25  H   UNL     1     -51.212  28.258  23.328  1.00  0.00     0.050 H 
ATOM     26  H   UNL     1     -49.873  28.426  22.215  1.00  0.00     0.050 H 
BRANCH  24  27
ATOM     27  C   UNL     1     -49.445  27.223  24.018  1.00  0.00     0.015 C 
ATOM     28  H   UNL     1     -49.655  26.286  23.490  1.00  0.00     0.045 H 
ATOM     29  H   UNL     1     -48.356  27.345  23.933  1.00  0.00     0.045 H 
BRANCH  27  30
ATOM     30  N   UNL     1     -49.774  27.023  25.441  1.00  0.00    -0.308 NA
BRANCH  30  31
ATOM     31  C   UNL     1     -51.175  26.674  25.655  1.00  0.00    -0.014 C 
ATOM     32  H   UNL     1     -51.369  26.483  26.716  1.00  0.00     0.039 H 
ATOM     33  H   UNL     1     -51.860  27.457  25.312  1.00  0.00     0.039 H 
ATOM     34  H   UNL     1     -51.423  25.751  25.120  1.00  0.00     0.039 H 
ENDBRANCH  30  31
BRANCH  30  35
ATOM     35  C   UNL     1     -48.887  26.062  26.091  1.00  0.00    -0.014 C 
ATOM     36  H   UNL     1     -48.717  26.348  27.135  1.00  0.00     0.039 H 
ATOM     37  H   UNL     1     -49.289  25.043  26.081  1.00  0.00     0.039 H 
ATOM     38  H   UNL     1     -47.904  26.052  25.606  1.00  0.00     0.039 H 
ENDBRANCH  30  35
ENDBRANCH  27  30
ENDBRANCH  24  27
ENDBRANCH  22  24
ENDBRANCH   3  22
BRANCH   7  39
ATOM     39  C   UNL     1     -46.905  34.767  27.012  1.00  0.00    -0.024 C 
ATOM     40  H   UNL     1     -45.808  34.724  26.997  1.00  0.00     0.032 H 
ATOM     41  H   UNL     1     -47.200  34.550  28.047  1.00  0.00     0.032 H 
BRANCH  39  42
ATOM     42  C   UNL     1     -47.357  36.189  26.614  1.00  0.00    -0.022 C 
ATOM     43  H   UNL     1     -47.395  36.256  25.519  1.00  0.00     0.032 H 
ATOM     44  H   UNL     1     -48.381  36.377  26.963  1.00  0.00     0.032 H 
BRANCH  42  45
ATOM     45  C   UNL     1     -46.447  37.272  27.141  1.00  0.00    -0.027 A 
ATOM     46  C   UNL     1     -45.657  37.079  28.262  1.00  0.00     0.030 A 
ATOM     47  C   UNL     1     -46.462  38.555  26.575  1.00  0.00    -0.032 A 
ATOM     48  N   UNL     1     -44.928  38.056  28.841  1.00  0.00    -0.262 NA
ATOM     49  H   UNL     1     -45.596  36.114  28.757  1.00  0.00     0.084 H 
ATOM     50  C   UNL     1     -45.791  39.618  27.193  1.00  0.00     0.066 A 
ATOM     51  H   UNL     1     -47.091  38.708  25.705  1.00  0.00     0.065 H 
ATOM     52  C   UNL     1     -45.028  39.305  28.311  1.00  0.00     0.051 A 
ATOM     53  H   UNL     1     -44.444  40.035  28.857  1.00  0.00     0.086 H 
BRANCH  50  54
ATOM     54  N   UNL     1     -45.964  40.962  26.729  1.00  0.00    -0.299 N 
ATOM     55  C   UNL     1     -44.934  41.811  26.347  1.00  0.00     0.018 A 
ATOM     56  C   UNL     1     -47.157  41.653  26.521  1.00  0.00     0.150 A 
ATOM     57  C   UNL     1     -45.439  42.997  25.847  1.00  0.00     0.012 A 
ATOM     58  H   UNL     1     -43.903  41.507  26.441  1.00  0.00     0.083 H 
ATOM     59  C   UNL     1     -46.861  42.891  25.956  1.00  0.00     0.067 A 
ATOM     60  N   UNL     1     -48.403  41.203  26.778  1.00  0.00    -0.218 NA
ATOM     61  C   UNL     1     -47.949  43.718  25.628  1.00  0.00     0.136 A 
ATOM     62  C   UNL     1     -49.354  42.076  26.422  1.00  0.00     0.120 A 
ATOM     63  N   UNL     1     -49.200  43.291  25.874  1.00  0.00    -0.219 NA
ATOM     64  H   UNL     1     -50.379  41.762  26.599  1.00  0.00     0.106 H 
BRANCH  57  65
ATOM     65  C   UNL     1     -44.683  44.168  25.275  1.00  0.00     0.085 C 
ATOM     66  C   UNL     1     -44.509  44.180  23.761  1.00  0.00    -0.020 C 
ATOM     67  O   UNL     1     -43.337  44.195  25.810  1.00  0.00    -0.373 OA
ATOM     68  H   UNL     1     -45.190  45.086  25.598  1.00  0.00     0.066 H 
ATOM     69  C   UNL     1     -43.233  43.398  23.575  1.00  0.00    -0.027 C 
ATOM     70  H   UNL     1     -45.353  43.791  23.188  1.00  0.00     0.030 H 
ATOM     71  H   UNL     1     -44.332  45.209  23.426  1.00  0.00     0.030 H 
ATOM     72  C   UNL     1     -42.416  43.856  24.762  1.00  0.00     0.048 C 
ATOM     73  H   UNL     1     -43.432  42.322  23.645  1.00  0.00     0.029 H 
ATOM     74  H   UNL     1     -42.737  43.589  22.619  1.00  0.00     0.029 H 
ATOM     75  H   UNL     1     -41.841  44.757  24.522  1.00  0.00     0.057 H 
ATOM     76  H   UNL     1     -41.724  43.087  25.116  1.00  0.00     0.057 H 
ENDBRANCH  57  65
BRANCH  61  77
ATOM     77  N   UNL     1     -47.812  44.985  25.071  1.00  0.00    -0.383 N 
ATOM     78  H   UNL     1     -46.833  45.262  24.987  1.00  0.00     0.158 HD
ATOM     79  H   UNL     1     -48.406  45.643  25.562  1.00  0.00     0.158 HD
ENDBRANCH  61  77
ENDBRANCH  50  54
ENDBRANCH  42  45
ENDBRANCH  39  42
ENDBRANCH   7  39
TORSDOF 14
ENDMDL
MODEL 5
REMARK VINA RESULT:      -8.7      3.184     12.567
REMARK SMILES CCc1cc(NCCN(C)C)c2ccc(CCc3cncc(-n4cc([C@@H]5CCCO5)c5c(N)ncnc54)c3)cc2n1
REMARK SMILES IDX 3 1 4 2 5 3 12 4 13 5 14 6 15 7 39 8 40 9 41 10 2 15 1 18
REMARK SMILES IDX 6 22 7 24 8 27 9 30 10 31 11 35 16 39 17 42 18 45 19 46
REMARK SMILES IDX 38 47 20 48 22 50 21 52 23 54 24 55 37 56 25 57 31 59 36 60
REMARK SMILES IDX 32 61 35 62 34 63 26 65 27 66 30 67 28 69 29 72 33 77
REMARK H PARENT 4 11 13 12 14 13 39 14 2 16 2 17 1 19 1 20 1 21 6 23 7 25 7 26
REMARK H PARENT 8 28 8 29 10 32 10 33 10 34 11 36 11 37 11 38 16 40 16 41
REMARK H PARENT 17 43 17 44 19 49 38 51 21 53 24 58 35 64 26 68 27 70 27 71
REMARK H PARENT 28 73 28 74 29 75 29 76 33 78 33 79
REMARK Flexibility Score: inf
ROOT
ATOM      1  C   UNL     1     -43.437  40.357  28.682  1.00  0.00     0.043 A 
ATOM      2  C   UNL     1     -43.730  41.101  27.546  1.00  0.00    -0.017 A 
ATOM      3  C   UNL     1     -44.835  40.771  26.755  1.00  0.00     0.045 A 
ATOM      4  C   UNL     1     -45.569  39.600  27.100  1.00  0.00     0.023 A 
ATOM      5  C   UNL     1     -46.615  39.048  26.315  1.00  0.00    -0.050 A 
ATOM      6  C   UNL     1     -47.268  37.869  26.685  1.00  0.00    -0.058 A 
ATOM      7  C   UNL     1     -46.912  37.220  27.863  1.00  0.00    -0.045 A 
ATOM      8  C   UNL     1     -45.914  37.794  28.668  1.00  0.00    -0.032 A 
ATOM      9  C   UNL     1     -45.216  38.932  28.292  1.00  0.00     0.073 A 
ATOM     10  N   UNL     1     -44.195  39.312  29.069  1.00  0.00    -0.253 NA
ATOM     11  H   UNL     1     -43.082  41.934  27.301  1.00  0.00     0.066 H 
ATOM     12  H   UNL     1     -46.898  39.509  25.373  1.00  0.00     0.063 H 
ATOM     13  H   UNL     1     -48.031  37.453  26.031  1.00  0.00     0.063 H 
ATOM     14  H   UNL     1     -45.607  37.291  29.585  1.00  0.00     0.065 H 
ENDROOT
BRANCH   1  15
ATOM     15  C   UNL     1     -42.228  40.721  29.513  1.00  0.00    -0.013 C 
ATOM     16  H   UNL     1     -41.371  40.850  28.841  1.00  0.00     0.033 H 
ATOM     17  H   UNL     1     -42.418  41.686  30.000  1.00  0.00     0.033 H 
BRANCH  15  18
ATOM     18  C   UNL     1     -41.855  39.698  30.579  1.00  0.00    -0.060 C 
ATOM     19  H   UNL     1     -42.331  39.931  31.536  1.00  0.00     0.023 H 
ATOM     20  H   UNL     1     -42.160  38.689  30.285  1.00  0.00     0.023 H 
ATOM     21  H   UNL     1     -40.771  39.694  30.734  1.00  0.00     0.023 H 
ENDBRANCH  15  18
ENDBRANCH   1  15
BRANCH   3  22
ATOM     22  N   UNL     1     -45.153  41.479  25.577  1.00  0.00    -0.383 N 
ATOM     23  H   UNL     1     -45.887  40.991  25.066  1.00  0.00     0.160 HD
BRANCH  22  24
ATOM     24  C   UNL     1     -45.407  42.924  25.602  1.00  0.00     0.027 C 
ATOM     25  H   UNL     1     -46.478  43.059  25.795  1.00  0.00     0.050 H 
ATOM     26  H   UNL     1     -44.887  43.405  26.437  1.00  0.00     0.050 H 
BRANCH  24  27
ATOM     27  C   UNL     1     -45.068  43.576  24.241  1.00  0.00     0.015 C 
ATOM     28  H   UNL     1     -43.980  43.641  24.126  1.00  0.00     0.045 H 
ATOM     29  H   UNL     1     -45.386  42.891  23.442  1.00  0.00     0.045 H 
BRANCH  27  30
ATOM     30  N   UNL     1     -45.635  44.906  23.957  1.00  0.00    -0.308 NA
BRANCH  30  31
ATOM     31  C   UNL     1     -45.289  45.395  22.625  1.00  0.00    -0.014 C 
ATOM     32  H   UNL     1     -44.959  44.571  21.983  1.00  0.00     0.039 H 
ATOM     33  H   UNL     1     -46.126  45.903  22.134  1.00  0.00     0.039 H 
ATOM     34  H   UNL     1     -44.453  46.100  22.684  1.00  0.00     0.039 H 
ENDBRANCH  30  31
BRANCH  30  35
ATOM     35  C   UNL     1     -47.077  44.960  24.179  1.00  0.00    -0.014 C 
ATOM     36  H   UNL     1     -47.609  44.501  23.338  1.00  0.00     0.039 H 
ATOM     37  H   UNL     1     -47.382  44.443  25.095  1.00  0.00     0.039 H 
ATOM     38  H   UNL     1     -47.421  45.999  24.236  1.00  0.00     0.039 H 
ENDBRANCH  30  35
ENDBRANCH  27  30
ENDBRANCH  24  27
ENDBRANCH  22  24
ENDBRANCH   3  22
BRANCH   7  39
ATOM     39  C   UNL     1     -47.484  35.865  28.216  1.00  0.00    -0.024 C 
ATOM     40  H   UNL     1     -47.998  35.943  29.182  1.00  0.00     0.032 H 
ATOM     41  H   UNL     1     -46.667  35.149  28.366  1.00  0.00     0.032 H 
BRANCH  39  42
ATOM     42  C   UNL     1     -48.477  35.328  27.161  1.00  0.00    -0.022 C 
ATOM     43  H   UNL     1     -49.387  34.987  27.671  1.00  0.00     0.032 H 
ATOM     44  H   UNL     1     -48.794  36.135  26.488  1.00  0.00     0.032 H 
BRANCH  42  45
ATOM     45  C   UNL     1     -47.917  34.190  26.342  1.00  0.00    -0.027 A 
ATOM     46  C   UNL     1     -46.655  34.252  25.775  1.00  0.00     0.030 A 
ATOM     47  C   UNL     1     -48.710  33.076  26.031  1.00  0.00    -0.032 A 
ATOM     48  N   UNL     1     -46.166  33.318  24.933  1.00  0.00    -0.262 NA
ATOM     49  H   UNL     1     -45.984  35.085  25.966  1.00  0.00     0.084 H 
ATOM     50  C   UNL     1     -48.278  32.128  25.094  1.00  0.00     0.066 A 
ATOM     51  H   UNL     1     -49.703  33.035  26.466  1.00  0.00     0.065 H 
ATOM     52  C   UNL     1     -46.993  32.292  24.593  1.00  0.00     0.051 A 
ATOM     53  H   UNL     1     -46.539  31.610  23.885  1.00  0.00     0.086 H 
BRANCH  50  54
ATOM     54  N   UNL     1     -49.163  31.101  24.631  1.00  0.00    -0.299 N 
ATOM     55  C   UNL     1     -50.100  31.255  23.618  1.00  0.00     0.018 A 
ATOM     56  C   UNL     1     -49.228  29.772  25.047  1.00  0.00     0.150 A 
ATOM     57  C   UNL     1     -50.716  30.050  23.337  1.00  0.00     0.012 A 
ATOM     58  H   UNL     1     -50.256  32.214  23.149  1.00  0.00     0.083 H 
ATOM     59  C   UNL     1     -50.154  29.103  24.250  1.00  0.00     0.067 A 
ATOM     60  N   UNL     1     -48.499  29.198  26.026  1.00  0.00    -0.218 NA
ATOM     61  C   UNL     1     -50.325  27.728  24.490  1.00  0.00     0.136 A 
ATOM     62  C   UNL     1     -48.747  27.889  26.159  1.00  0.00     0.120 A 
ATOM     63  N   UNL     1     -49.608  27.134  25.460  1.00  0.00    -0.219 NA
ATOM     64  H   UNL     1     -48.181  27.372  26.929  1.00  0.00     0.106 H 
BRANCH  57  65
ATOM     65  C   UNL     1     -51.750  29.751  22.282  1.00  0.00     0.085 C 
ATOM     66  C   UNL     1     -51.231  29.124  20.993  1.00  0.00    -0.020 C 
ATOM     67  O   UNL     1     -52.401  30.977  21.870  1.00  0.00    -0.373 OA
ATOM     68  H   UNL     1     -52.511  29.101  22.731  1.00  0.00     0.066 H 
ATOM     69  C   UNL     1     -50.881  30.333  20.162  1.00  0.00    -0.027 C 
ATOM     70  H   UNL     1     -50.408  28.417  21.113  1.00  0.00     0.030 H 
ATOM     71  H   UNL     1     -52.051  28.592  20.496  1.00  0.00     0.030 H 
ATOM     72  C   UNL     1     -51.993  31.291  20.529  1.00  0.00     0.048 C 
ATOM     73  H   UNL     1     -49.913  30.741  20.473  1.00  0.00     0.029 H 
ATOM     74  H   UNL     1     -50.835  30.128  19.089  1.00  0.00     0.029 H 
ATOM     75  H   UNL     1     -52.863  31.155  19.878  1.00  0.00     0.057 H 
ATOM     76  H   UNL     1     -51.680  32.336  20.476  1.00  0.00     0.057 H 
ENDBRANCH  57  65
BRANCH  61  77
ATOM     77  N   UNL     1     -51.220  26.930  23.786  1.00  0.00    -0.383 N 
ATOM     78  H   UNL     1     -51.047  26.956  22.780  1.00  0.00     0.158 HD
ATOM     79  H   UNL     1     -52.168  27.147  24.067  1.00  0.00     0.158 HD
ENDBRANCH  61  77
ENDBRANCH  50  54
ENDBRANCH  42  45
ENDBRANCH  39  42
ENDBRANCH   7  39
TORSDOF 14
ENDMDL
MODEL 6
REMARK VINA RESULT:      -8.5      2.369      4.481
REMARK SMILES CCc1cc(NCCN(C)C)c2ccc(CCc3cncc(-n4cc([C@@H]5CCCO5)c5c(N)ncnc54)c3)cc2n1
REMARK SMILES IDX 3 1 4 2 5 3 12 4 13 5 14 6 15 7 39 8 40 9 41 10 2 15 1 18
REMARK SMILES IDX 6 22 7 24 8 27 9 30 10 31 11 35 16 39 17 42 18 45 19 46
REMARK SMILES IDX 38 47 20 48 22 50 21 52 23 54 24 55 37 56 25 57 31 59 36 60
REMARK SMILES IDX 32 61 35 62 34 63 26 65 27 66 30 67 28 69 29 72 33 77
REMARK H PARENT 4 11 13 12 14 13 39 14 2 16 2 17 1 19 1 20 1 21 6 23 7 25 7 26
REMARK H PARENT 8 28 8 29 10 32 10 33 10 34 11 36 11 37 11 38 16 40 16 41
REMARK H PARENT 17 43 17 44 19 49 38 51 21 53 24 58 35 64 26 68 27 70 27 71
REMARK H PARENT 28 73 28 74 29 75 29 76 33 78 33 79
REMARK Flexibility Score: inf
ROOT
ATOM      1  C   UNL     1     -49.818  29.869  24.020  1.00  0.00     0.043 A 
ATOM      2  C   UNL     1     -48.620  29.305  23.596  1.00  0.00    -0.017 A 
ATOM      3  C   UNL     1     -47.402  29.888  23.957  1.00  0.00     0.045 A 
ATOM      4  C   UNL     1     -47.444  31.119  24.674  1.00  0.00     0.023 A 
ATOM      5  C   UNL     1     -46.306  31.910  24.977  1.00  0.00    -0.050 A 
ATOM      6  C   UNL     1     -46.418  33.133  25.644  1.00  0.00    -0.058 A 
ATOM      7  C   UNL     1     -47.668  33.589  26.050  1.00  0.00    -0.045 A 
ATOM      8  C   UNL     1     -48.790  32.782  25.797  1.00  0.00    -0.032 A 
ATOM      9  C   UNL     1     -48.707  31.592  25.088  1.00  0.00     0.073 A 
ATOM     10  N   UNL     1     -49.856  30.975  24.788  1.00  0.00    -0.253 NA
ATOM     11  H   UNL     1     -48.666  28.409  22.989  1.00  0.00     0.066 H 
ATOM     12  H   UNL     1     -45.317  31.602  24.648  1.00  0.00     0.063 H 
ATOM     13  H   UNL     1     -45.527  33.732  25.815  1.00  0.00     0.063 H 
ATOM     14  H   UNL     1     -49.781  33.130  26.089  1.00  0.00     0.065 H 
ENDROOT
BRANCH   1  15
ATOM     15  C   UNL     1     -51.123  29.230  23.604  1.00  0.00    -0.013 C 
ATOM     16  H   UNL     1     -51.899  29.527  24.320  1.00  0.00     0.033 H 
ATOM     17  H   UNL     1     -51.407  29.627  22.622  1.00  0.00     0.033 H 
BRANCH  15  18
ATOM     18  C   UNL     1     -51.093  27.709  23.529  1.00  0.00    -0.060 C 
ATOM     19  H   UNL     1     -51.041  27.363  22.492  1.00  0.00     0.023 H 
ATOM     20  H   UNL     1     -50.230  27.301  24.065  1.00  0.00     0.023 H 
ATOM     21  H   UNL     1     -51.999  27.291  23.979  1.00  0.00     0.023 H 
ENDBRANCH  15  18
ENDBRANCH   1  15
BRANCH   3  22
ATOM     22  N   UNL     1     -46.163  29.368  23.526  1.00  0.00    -0.383 N 
ATOM     23  H   UNL     1     -46.076  28.394  23.814  1.00  0.00     0.160 HD
BRANCH  22  24
ATOM     24  C   UNL     1     -45.701  29.546  22.144  1.00  0.00     0.027 C 
ATOM     25  H   UNL     1     -44.607  29.471  22.159  1.00  0.00     0.050 H 
ATOM     26  H   UNL     1     -46.050  28.732  21.500  1.00  0.00     0.050 H 
BRANCH  24  27
ATOM     27  C   UNL     1     -46.090  30.940  21.600  1.00  0.00     0.015 C 
ATOM     28  H   UNL     1     -46.711  31.462  22.337  1.00  0.00     0.045 H 
ATOM     29  H   UNL     1     -45.178  31.550  21.532  1.00  0.00     0.045 H 
BRANCH  27  30
ATOM     30  N   UNL     1     -46.781  31.001  20.300  1.00  0.00    -0.308 NA
BRANCH  30  31
ATOM     31  C   UNL     1     -48.235  31.001  20.432  1.00  0.00    -0.014 C 
ATOM     32  H   UNL     1     -48.548  31.626  21.276  1.00  0.00     0.039 H 
ATOM     33  H   UNL     1     -48.739  31.361  19.528  1.00  0.00     0.039 H 
ATOM     34  H   UNL     1     -48.598  29.989  20.641  1.00  0.00     0.039 H 
ENDBRANCH  30  31
BRANCH  30  35
ATOM     35  C   UNL     1     -46.328  32.119  19.477  1.00  0.00    -0.014 C 
ATOM     36  H   UNL     1     -46.385  33.055  20.043  1.00  0.00     0.039 H 
ATOM     37  H   UNL     1     -45.296  31.996  19.130  1.00  0.00     0.039 H 
ATOM     38  H   UNL     1     -46.976  32.243  18.601  1.00  0.00     0.039 H 
ENDBRANCH  30  35
ENDBRANCH  27  30
ENDBRANCH  24  27
ENDBRANCH  22  24
ENDBRANCH   3  22
BRANCH   7  39
ATOM     39  C   UNL     1     -47.847  34.974  26.632  1.00  0.00    -0.024 C 
ATOM     40  H   UNL     1     -47.765  34.908  27.725  1.00  0.00     0.032 H 
ATOM     41  H   UNL     1     -48.864  35.331  26.427  1.00  0.00     0.032 H 
BRANCH  39  42
ATOM     42  C   UNL     1     -46.809  35.994  26.112  1.00  0.00    -0.022 C 
ATOM     43  H   UNL     1     -45.857  35.475  25.942  1.00  0.00     0.032 H 
ATOM     44  H   UNL     1     -47.116  36.388  25.135  1.00  0.00     0.032 H 
BRANCH  42  45
ATOM     45  C   UNL     1     -46.578  37.144  27.062  1.00  0.00    -0.027 A 
ATOM     46  C   UNL     1     -46.634  36.978  28.436  1.00  0.00     0.030 A 
ATOM     47  C   UNL     1     -46.413  38.449  26.576  1.00  0.00    -0.032 A 
ATOM     48  N   UNL     1     -46.562  37.998  29.317  1.00  0.00    -0.262 NA
ATOM     49  H   UNL     1     -46.763  35.998  28.887  1.00  0.00     0.084 H 
ATOM     50  C   UNL     1     -46.422  39.545  27.449  1.00  0.00     0.066 A 
ATOM     51  H   UNL     1     -46.382  38.579  25.500  1.00  0.00     0.065 H 
ATOM     52  C   UNL     1     -46.480  39.257  28.806  1.00  0.00     0.051 A 
ATOM     53  H   UNL     1     -46.466  40.017  29.578  1.00  0.00     0.086 H 
BRANCH  50  54
ATOM     54  N   UNL     1     -46.450  40.885  26.942  1.00  0.00    -0.299 N 
ATOM     55  C   UNL     1     -45.329  41.634  26.610  1.00  0.00     0.018 A 
ATOM     56  C   UNL     1     -47.565  41.665  26.640  1.00  0.00     0.150 A 
ATOM     57  C   UNL     1     -45.700  42.842  26.050  1.00  0.00     0.012 A 
ATOM     58  H   UNL     1     -44.336  41.249  26.779  1.00  0.00     0.083 H 
ATOM     59  C   UNL     1     -47.130  42.857  26.067  1.00  0.00     0.067 A 
ATOM     60  N   UNL     1     -48.858  41.327  26.823  1.00  0.00    -0.218 NA
ATOM     61  C   UNL     1     -48.121  43.762  25.648  1.00  0.00     0.136 A 
ATOM     62  C   UNL     1     -49.707  42.265  26.384  1.00  0.00     0.120 A 
ATOM     63  N   UNL     1     -49.416  43.447  25.820  1.00  0.00    -0.219 NA
ATOM     64  H   UNL     1     -50.764  42.043  26.500  1.00  0.00     0.106 H 
BRANCH  57  65
ATOM     65  C   UNL     1     -44.812  43.930  25.502  1.00  0.00     0.085 C 
ATOM     66  C   UNL     1     -44.649  43.964  23.987  1.00  0.00    -0.020 C 
ATOM     67  O   UNL     1     -43.469  43.780  26.023  1.00  0.00    -0.373 OA
ATOM     68  H   UNL     1     -45.203  44.893  25.855  1.00  0.00     0.066 H 
ATOM     69  C   UNL     1     -43.478  43.039  23.767  1.00  0.00    -0.027 C 
ATOM     70  H   UNL     1     -45.538  43.695  23.413  1.00  0.00     0.030 H 
ATOM     71  H   UNL     1     -44.352  44.973  23.679  1.00  0.00     0.030 H 
ATOM     72  C   UNL     1     -42.603  43.362  24.957  1.00  0.00     0.048 C 
ATOM     73  H   UNL     1     -43.805  41.994  23.810  1.00  0.00     0.029 H 
ATOM     74  H   UNL     1     -42.969  43.197  22.811  1.00  0.00     0.029 H 
ATOM     75  H   UNL     1     -41.926  44.194  24.735  1.00  0.00     0.057 H 
ATOM     76  H   UNL     1     -42.006  42.506  25.282  1.00  0.00     0.057 H 
ENDBRANCH  57  65
BRANCH  61  77
ATOM     77  N   UNL     1     -47.842  44.997  25.072  1.00  0.00    -0.383 N 
ATOM     78  H   UNL     1     -46.884  45.298  25.257  1.00  0.00     0.158 HD
ATOM     79  H   UNL     1     -48.560  45.664  25.324  1.00  0.00     0.158 HD
ENDBRANCH  61  77
ENDBRANCH  50  54
ENDBRANCH  42  45
ENDBRANCH  39  42
ENDBRANCH   7  39
TORSDOF 14
ENDMDL
MODEL 7
REMARK VINA RESULT:      -8.4      2.638      5.876
REMARK SMILES CCc1cc(NCCN(C)C)c2ccc(CCc3cncc(-n4cc([C@@H]5CCCO5)c5c(N)ncnc54)c3)cc2n1
REMARK SMILES IDX 3 1 4 2 5 3 12 4 13 5 14 6 15 7 39 8 40 9 41 10 2 15 1 18
REMARK SMILES IDX 6 22 7 24 8 27 9 30 10 31 11 35 16 39 17 42 18 45 19 46
REMARK SMILES IDX 38 47 20 48 22 50 21 52 23 54 24 55 37 56 25 57 31 59 36 60
REMARK SMILES IDX 32 61 35 62 34 63 26 65 27 66 30 67 28 69 29 72 33 77
REMARK H PARENT 4 11 13 12 14 13 39 14 2 16 2 17 1 19 1 20 1 21 6 23 7 25 7 26
REMARK H PARENT 8 28 8 29 10 32 10 33 10 34 11 36 11 37 11 38 16 40 16 41
REMARK H PARENT 17 43 17 44 19 49 38 51 21 53 24 58 35 64 26 68 27 70 27 71
REMARK H PARENT 28 73 28 74 29 75 29 76 33 78 33 79
REMARK Flexibility Score: inf
ROOT
ATOM      1  C   UNL     1     -50.063  34.904  26.791  1.00  0.00     0.043 A 
ATOM      2  C   UNL     1     -49.269  33.815  26.451  1.00  0.00    -0.017 A 
ATOM      3  C   UNL     1     -47.889  33.855  26.672  1.00  0.00     0.045 A 
ATOM      4  C   UNL     1     -47.331  35.075  27.154  1.00  0.00     0.023 A 
ATOM      5  C   UNL     1     -45.941  35.325  27.284  1.00  0.00    -0.050 A 
ATOM      6  C   UNL     1     -45.453  36.560  27.720  1.00  0.00    -0.058 A 
ATOM      7  C   UNL     1     -46.343  37.574  28.063  1.00  0.00    -0.045 A 
ATOM      8  C   UNL     1     -47.720  37.310  27.986  1.00  0.00    -0.032 A 
ATOM      9  C   UNL     1     -48.224  36.110  27.503  1.00  0.00     0.073 A 
ATOM     10  N   UNL     1     -49.549  36.020  27.346  1.00  0.00    -0.253 NA
ATOM     11  H   UNL     1     -49.752  32.948  26.017  1.00  0.00     0.066 H 
ATOM     12  H   UNL     1     -45.215  34.568  26.995  1.00  0.00     0.063 H 
ATOM     13  H   UNL     1     -44.379  36.727  27.759  1.00  0.00     0.063 H 
ATOM     14  H   UNL     1     -48.434  38.096  28.232  1.00  0.00     0.065 H 
ENDROOT
BRANCH   1  15
ATOM     15  C   UNL     1     -51.550  34.845  26.527  1.00  0.00    -0.013 C 
ATOM     16  H   UNL     1     -51.713  34.898  25.444  1.00  0.00     0.033 H 
ATOM     17  H   UNL     1     -51.927  33.876  26.874  1.00  0.00     0.033 H 
BRANCH  15  18
ATOM     18  C   UNL     1     -52.359  35.953  27.190  1.00  0.00    -0.060 C 
ATOM     19  H   UNL     1     -52.629  35.687  28.217  1.00  0.00     0.023 H 
ATOM     20  H   UNL     1     -51.798  36.892  27.220  1.00  0.00     0.023 H 
ATOM     21  H   UNL     1     -53.285  36.129  26.633  1.00  0.00     0.023 H 
ENDBRANCH  15  18
ENDBRANCH   1  15
BRANCH   3  22
ATOM     22  N   UNL     1     -47.040  32.786  26.316  1.00  0.00    -0.383 N 
ATOM     23  H   UNL     1     -47.390  31.916  26.715  1.00  0.00     0.160 HD
BRANCH  22  24
ATOM     24  C   UNL     1     -46.609  32.586  24.928  1.00  0.00     0.027 C 
ATOM     25  H   UNL     1     -46.675  33.560  24.427  1.00  0.00     0.050 H 
ATOM     26  H   UNL     1     -45.554  32.293  24.877  1.00  0.00     0.050 H 
BRANCH  24  27
ATOM     27  C   UNL     1     -47.535  31.591  24.191  1.00  0.00     0.015 C 
ATOM     28  H   UNL     1     -47.576  30.647  24.747  1.00  0.00     0.045 H 
ATOM     29  H   UNL     1     -48.563  31.979  24.237  1.00  0.00     0.045 H 
BRANCH  27  30
ATOM     30  N   UNL     1     -47.226  31.277  22.786  1.00  0.00    -0.308 NA
BRANCH  30  31
ATOM     31  C   UNL     1     -45.880  30.737  22.609  1.00  0.00    -0.014 C 
ATOM     32  H   UNL     1     -45.232  31.034  23.441  1.00  0.00     0.039 H 
ATOM     33  H   UNL     1     -45.872  29.645  22.535  1.00  0.00     0.039 H 
ATOM     34  H   UNL     1     -45.425  31.141  21.698  1.00  0.00     0.039 H 
ENDBRANCH  30  31
BRANCH  30  35
ATOM     35  C   UNL     1     -48.226  30.407  22.173  1.00  0.00    -0.014 C 
ATOM     36  H   UNL     1     -48.448  29.561  22.832  1.00  0.00     0.039 H 
ATOM     37  H   UNL     1     -49.165  30.928  21.962  1.00  0.00     0.039 H 
ATOM     38  H   UNL     1     -47.847  29.981  21.236  1.00  0.00     0.039 H 
ENDBRANCH  30  35
ENDBRANCH  27  30
ENDBRANCH  24  27
ENDBRANCH  22  24
ENDBRANCH   3  22
BRANCH   7  39
ATOM     39  C   UNL     1     -45.855  38.968  28.388  1.00  0.00    -0.024 C 
ATOM     40  H   UNL     1     -46.507  39.396  29.160  1.00  0.00     0.032 H 
ATOM     41  H   UNL     1     -45.970  39.612  27.507  1.00  0.00     0.032 H 
BRANCH  39  42
ATOM     42  C   UNL     1     -44.394  39.003  28.887  1.00  0.00    -0.022 C 
ATOM     43  H   UNL     1     -44.389  38.887  29.979  1.00  0.00     0.032 H 
ATOM     44  H   UNL     1     -43.833  38.147  28.492  1.00  0.00     0.032 H 
BRANCH  42  45
ATOM     45  C   UNL     1     -43.672  40.279  28.527  1.00  0.00    -0.027 A 
ATOM     46  C   UNL     1     -42.644  40.781  29.309  1.00  0.00     0.030 A 
ATOM     47  C   UNL     1     -44.101  41.061  27.445  1.00  0.00    -0.032 A 
ATOM     48  N   UNL     1     -42.059  41.978  29.097  1.00  0.00    -0.262 NA
ATOM     49  H   UNL     1     -42.260  40.234  30.165  1.00  0.00     0.084 H 
ATOM     50  C   UNL     1     -43.583  42.347  27.241  1.00  0.00     0.066 A 
ATOM     51  H   UNL     1     -44.914  40.673  26.841  1.00  0.00     0.065 H 
ATOM     52  C   UNL     1     -42.554  42.743  28.086  1.00  0.00     0.051 A 
ATOM     53  H   UNL     1     -42.056  43.702  28.010  1.00  0.00     0.086 H 
BRANCH  50  54
ATOM     54  N   UNL     1     -44.155  43.220  26.260  1.00  0.00    -0.299 N 
ATOM     55  C   UNL     1     -45.376  43.869  26.389  1.00  0.00     0.018 A 
ATOM     56  C   UNL     1     -43.605  43.624  25.045  1.00  0.00     0.150 A 
ATOM     57  C   UNL     1     -45.590  44.720  25.320  1.00  0.00     0.012 A 
ATOM     58  H   UNL     1     -46.008  43.696  27.245  1.00  0.00     0.083 H 
ATOM     59  C   UNL     1     -44.454  44.564  24.465  1.00  0.00     0.067 A 
ATOM     60  N   UNL     1     -42.432  43.220  24.518  1.00  0.00    -0.218 NA
ATOM     61  C   UNL     1     -44.041  45.128  23.245  1.00  0.00     0.136 A 
ATOM     62  C   UNL     1     -42.146  43.827  23.359  1.00  0.00     0.120 A 
ATOM     63  N   UNL     1     -42.875  44.740  22.701  1.00  0.00    -0.219 NA
ATOM     64  H   UNL     1     -41.206  43.544  22.892  1.00  0.00     0.106 H 
BRANCH  57  65
ATOM     65  C   UNL     1     -46.751  45.651  25.083  1.00  0.00     0.085 C 
ATOM     66  C   UNL     1     -47.838  45.653  26.152  1.00  0.00    -0.020 C 
ATOM     67  O   UNL     1     -47.430  45.289  23.856  1.00  0.00    -0.373 OA
ATOM     68  H   UNL     1     -46.350  46.665  24.959  1.00  0.00     0.066 H 
ATOM     69  C   UNL     1     -48.756  44.553  25.683  1.00  0.00    -0.027 C 
ATOM     70  H   UNL     1     -47.487  45.528  27.178  1.00  0.00     0.030 H 
ATOM     71  H   UNL     1     -48.387  46.601  26.106  1.00  0.00     0.030 H 
ATOM     72  C   UNL     1     -48.714  44.736  24.182  1.00  0.00     0.048 C 
ATOM     73  H   UNL     1     -48.348  43.574  25.956  1.00  0.00     0.029 H 
ATOM     74  H   UNL     1     -49.769  44.625  26.090  1.00  0.00     0.029 H 
ATOM     75  H   UNL     1     -49.476  45.448  23.849  1.00  0.00     0.057 H 
ATOM     76  H   UNL     1     -48.857  43.797  23.642  1.00  0.00     0.057 H 
ENDBRANCH  57  65
BRANCH  61  77
ATOM     77  N   UNL     1     -44.786  46.067  22.540  1.00  0.00    -0.383 N 
ATOM     78  H   UNL     1     -45.704  46.220  22.959  1.00  0.00     0.158 HD
ATOM     79  H   UNL     1     -44.797  45.830  21.556  1.00  0.00     0.158 HD
ENDBRANCH  61  77
ENDBRANCH  50  54
ENDBRANCH  42  45
ENDBRANCH  39  42
ENDBRANCH   7  39
TORSDOF 14
ENDMDL
