MODEL 1
REMARK VINA RESULT:     -10.4      0.000      0.000
REMARK SMILES CCc1cc(N)c2ccc(OCc3cncc(-n4ccc5c(N)ncnc54)c3)cc2n1
REMARK SMILES IDX 12 1 11 4 10 5 3 6 4 7 31 8 5 9 30 11 7 12 29 13 8 14 9 16
REMARK SMILES IDX 2 19 1 22 6 26 13 29 14 30 28 31 15 32 17 34 16 36 18 38
REMARK SMILES IDX 19 39 27 40 20 41 21 43 26 44 22 46 25 47 24 48 23 50
REMARK H PARENT 12 2 12 3 4 10 29 15 8 17 9 18 2 20 2 21 1 23 1 24 1 25 6 27
REMARK H PARENT 6 28 14 33 28 35 16 37 19 42 20 45 25 49 23 51 23 52
REMARK Flexibility Score: inf
ROOT
ATOM      1  C   UNL     1     -48.392  35.989  27.126  1.00  0.00     0.115 C 
ATOM      2  H   UNL     1     -49.372  36.458  27.281  1.00  0.00     0.076 H 
ATOM      3  H   UNL     1     -48.165  36.104  26.059  1.00  0.00     0.076 H 
ENDROOT
BRANCH   1   4
ATOM      4  O   UNL     1     -48.450  34.584  27.378  1.00  0.00    -0.489 OA
BRANCH   4   5
ATOM      5  C   UNL     1     -47.893  33.739  26.458  1.00  0.00     0.122 A 
ATOM      6  C   UNL     1     -48.789  29.820  23.914  1.00  0.00     0.043 A 
ATOM      7  C   UNL     1     -47.560  29.862  23.273  1.00  0.00    -0.017 A 
ATOM      8  N   UNL     1     -49.148  30.721  24.853  1.00  0.00    -0.253 NA
ATOM      9  C   UNL     1     -46.633  30.840  23.636  1.00  0.00     0.043 A 
ATOM     10  H   UNL     1     -47.324  29.136  22.503  1.00  0.00     0.066 H 
ATOM     11  C   UNL     1     -48.296  31.714  25.155  1.00  0.00     0.076 A 
ATOM     12  C   UNL     1     -47.023  31.840  24.561  1.00  0.00     0.023 A 
ATOM     13  C   UNL     1     -48.700  32.660  26.087  1.00  0.00     0.007 A 
ATOM     14  C   UNL     1     -46.219  32.948  24.918  1.00  0.00    -0.047 A 
ATOM     15  H   UNL     1     -49.684  32.555  26.538  1.00  0.00     0.069 H 
ATOM     16  C   UNL     1     -46.651  33.889  25.857  1.00  0.00    -0.019 A 
ATOM     17  H   UNL     1     -45.252  33.102  24.450  1.00  0.00     0.063 H 
ATOM     18  H   UNL     1     -46.002  34.731  26.072  1.00  0.00     0.066 H 
BRANCH   6  19
ATOM     19  C   UNL     1     -49.807  28.771  23.552  1.00  0.00    -0.013 C 
ATOM     20  H   UNL     1     -50.639  29.246  23.019  1.00  0.00     0.033 H 
ATOM     21  H   UNL     1     -50.231  28.332  24.462  1.00  0.00     0.033 H 
BRANCH  19  22
ATOM     22  C   UNL     1     -49.203  27.684  22.677  1.00  0.00    -0.060 C 
ATOM     23  H   UNL     1     -48.207  27.414  23.041  1.00  0.00     0.023 H 
ATOM     24  H   UNL     1     -49.823  26.782  22.682  1.00  0.00     0.023 H 
ATOM     25  H   UNL     1     -49.106  28.018  21.638  1.00  0.00     0.023 H 
ENDBRANCH  19  22
ENDBRANCH   6  19
BRANCH   9  26
ATOM     26  N   UNL     1     -45.424  30.912  22.912  1.00  0.00    -0.398 N 
ATOM     27  H   UNL     1     -44.876  31.742  23.116  1.00  0.00     0.156 HD
ATOM     28  H   UNL     1     -45.537  30.781  21.912  1.00  0.00     0.156 HD
ENDBRANCH   9  26
ENDBRANCH   4   5
ENDBRANCH   1   4
BRANCH   1  29
ATOM     29  C   UNL     1     -47.304  36.692  27.896  1.00  0.00     0.010 A 
ATOM     30  C   UNL     1     -46.879  36.241  29.137  1.00  0.00     0.034 A 
ATOM     31  C   UNL     1     -46.642  37.804  27.349  1.00  0.00    -0.028 A 
ATOM     32  N   UNL     1     -45.888  36.823  29.845  1.00  0.00    -0.262 NA
ATOM     33  H   UNL     1     -47.332  35.377  29.615  1.00  0.00     0.084 H 
ATOM     34  C   UNL     1     -45.610  38.441  28.056  1.00  0.00     0.066 A 
ATOM     35  H   UNL     1     -46.967  38.151  26.374  1.00  0.00     0.065 H 
ATOM     36  C   UNL     1     -45.282  37.906  29.296  1.00  0.00     0.051 A 
ATOM     37  H   UNL     1     -44.497  38.300  29.931  1.00  0.00     0.086 H 
BRANCH  34  38
ATOM     38  N   UNL     1     -44.929  39.579  27.514  1.00  0.00    -0.300 N 
ATOM     39  C   UNL     1     -45.226  40.182  26.297  1.00  0.00     0.012 A 
ATOM     40  C   UNL     1     -43.867  40.295  28.074  1.00  0.00     0.150 A 
ATOM     41  C   UNL     1     -44.377  41.245  26.087  1.00  0.00    -0.031 A 
ATOM     42  H   UNL     1     -46.011  39.815  25.654  1.00  0.00     0.082 H 
ATOM     43  C   UNL     1     -43.514  41.323  27.203  1.00  0.00     0.061 A 
ATOM     44  N   UNL     1     -43.271  40.064  29.262  1.00  0.00    -0.218 NA
ATOM     45  H   UNL     1     -44.384  41.897  25.224  1.00  0.00     0.065 H 
ATOM     46  C   UNL     1     -42.459  42.163  27.590  1.00  0.00     0.136 A 
ATOM     47  C   UNL     1     -42.284  40.930  29.528  1.00  0.00     0.120 A 
ATOM     48  N   UNL     1     -41.847  41.947  28.766  1.00  0.00    -0.219 NA
ATOM     49  H   UNL     1     -41.771  40.793  30.475  1.00  0.00     0.106 H 
BRANCH  46  50
ATOM     50  N   UNL     1     -41.991  43.216  26.816  1.00  0.00    -0.383 N 
ATOM     51  H   UNL     1     -42.595  43.485  26.052  1.00  0.00     0.158 HD
ATOM     52  H   UNL     1     -41.014  43.079  26.587  1.00  0.00     0.158 HD
ENDBRANCH  46  50
ENDBRANCH  34  38
ENDBRANCH   1  29
TORSDOF 8
ENDMDL
MODEL 2
REMARK VINA RESULT:     -10.3      1.786     10.388
REMARK SMILES CCc1cc(N)c2ccc(OCc3cncc(-n4ccc5c(N)ncnc54)c3)cc2n1
REMARK SMILES IDX 12 1 11 4 10 5 3 6 4 7 31 8 5 9 30 11 7 12 29 13 8 14 9 16
REMARK SMILES IDX 2 19 1 22 6 26 13 29 14 30 28 31 15 32 17 34 16 36 18 38
REMARK SMILES IDX 19 39 27 40 20 41 21 43 26 44 22 46 25 47 24 48 23 50
REMARK H PARENT 12 2 12 3 4 10 29 15 8 17 9 18 2 20 2 21 1 23 1 24 1 25 6 27
REMARK H PARENT 6 28 14 33 28 35 16 37 19 42 20 45 25 49 23 51 23 52
REMARK Flexibility Score: inf
ROOT
ATOM      1  C   UNL     1     -46.646  36.643  26.862  1.00  0.00     0.115 C 
ATOM      2  H   UNL     1     -45.823  37.034  26.251  1.00  0.00     0.076 H 
ATOM      3  H   UNL     1     -47.571  36.954  26.362  1.00  0.00     0.076 H 
ENDROOT
BRANCH   1   4
ATOM      4  O   UNL     1     -46.661  37.253  28.154  1.00  0.00    -0.489 OA
BRANCH   4   5
ATOM      5  C   UNL     1     -45.623  38.079  28.491  1.00  0.00     0.122 A 
ATOM      6  C   UNL     1     -43.129  41.821  26.939  1.00  0.00     0.043 A 
ATOM      7  C   UNL     1     -42.342  41.866  28.080  1.00  0.00    -0.017 A 
ATOM      8  N   UNL     1     -44.082  40.882  26.753  1.00  0.00    -0.253 NA
ATOM      9  C   UNL     1     -42.498  40.884  29.058  1.00  0.00     0.043 A 
ATOM     10  H   UNL     1     -41.608  42.656  28.202  1.00  0.00     0.066 H 
ATOM     11  C   UNL     1     -44.297  39.978  27.721  1.00  0.00     0.076 A 
ATOM     12  C   UNL     1     -43.546  39.940  28.915  1.00  0.00     0.023 A 
ATOM     13  C   UNL     1     -45.312  39.050  27.536  1.00  0.00     0.007 A 
ATOM     14  C   UNL     1     -43.881  38.973  29.892  1.00  0.00    -0.047 A 
ATOM     15  H   UNL     1     -45.886  39.089  26.613  1.00  0.00     0.069 H 
ATOM     16  C   UNL     1     -44.911  38.052  29.682  1.00  0.00    -0.019 A 
ATOM     17  H   UNL     1     -43.355  38.940  30.841  1.00  0.00     0.063 H 
ATOM     18  H   UNL     1     -45.139  37.350  30.476  1.00  0.00     0.066 H 
BRANCH   6  19
ATOM     19  C   UNL     1     -42.978  42.861  25.861  1.00  0.00    -0.013 C 
ATOM     20  H   UNL     1     -42.018  42.714  25.351  1.00  0.00     0.033 H 
ATOM     21  H   UNL     1     -42.942  43.861  26.309  1.00  0.00     0.033 H 
BRANCH  19  22
ATOM     22  C   UNL     1     -44.106  42.782  24.844  1.00  0.00    -0.060 C 
ATOM     23  H   UNL     1     -45.003  42.357  25.307  1.00  0.00     0.023 H 
ATOM     24  H   UNL     1     -44.360  43.774  24.457  1.00  0.00     0.023 H 
ATOM     25  H   UNL     1     -43.831  42.149  23.993  1.00  0.00     0.023 H 
ENDBRANCH  19  22
ENDBRANCH   6  19
BRANCH   9  26
ATOM     26  N   UNL     1     -41.744  41.000  30.245  1.00  0.00    -0.398 N 
ATOM     27  H   UNL     1     -40.953  40.366  30.288  1.00  0.00     0.156 HD
ATOM     28  H   UNL     1     -42.302  40.953  31.091  1.00  0.00     0.156 HD
ENDBRANCH   9  26
ENDBRANCH   4   5
ENDBRANCH   1   4
BRANCH   1  29
ATOM     29  C   UNL     1     -46.645  35.136  26.910  1.00  0.00     0.010 A 
ATOM     30  C   UNL     1     -46.100  34.441  27.979  1.00  0.00     0.034 A 
ATOM     31  C   UNL     1     -47.254  34.386  25.891  1.00  0.00    -0.028 A 
ATOM     32  N   UNL     1     -46.105  33.095  28.076  1.00  0.00    -0.262 NA
ATOM     33  H   UNL     1     -45.627  34.954  28.812  1.00  0.00     0.084 H 
ATOM     34  C   UNL     1     -47.276  32.984  25.951  1.00  0.00     0.066 A 
ATOM     35  H   UNL     1     -47.690  34.930  25.060  1.00  0.00     0.065 H 
ATOM     36  C   UNL     1     -46.684  32.398  27.064  1.00  0.00     0.051 A 
ATOM     37  H   UNL     1     -46.648  31.329  27.232  1.00  0.00     0.086 H 
BRANCH  34  38
ATOM     38  N   UNL     1     -47.887  32.204  24.917  1.00  0.00    -0.300 N 
ATOM     39  C   UNL     1     -49.257  32.032  24.750  1.00  0.00     0.012 A 
ATOM     40  C   UNL     1     -47.261  31.481  23.897  1.00  0.00     0.150 A 
ATOM     41  C   UNL     1     -49.494  31.223  23.663  1.00  0.00    -0.031 A 
ATOM     42  H   UNL     1     -49.974  32.485  25.417  1.00  0.00     0.082 H 
ATOM     43  C   UNL     1     -48.239  30.868  23.118  1.00  0.00     0.061 A 
ATOM     44  N   UNL     1     -45.935  31.385  23.670  1.00  0.00    -0.218 NA
ATOM     45  H   UNL     1     -50.468  30.926  23.298  1.00  0.00     0.065 H 
ATOM     46  C   UNL     1     -47.808  30.091  22.033  1.00  0.00     0.136 A 
ATOM     47  C   UNL     1     -45.641  30.624  22.607  1.00  0.00     0.120 A 
ATOM     48  N   UNL     1     -46.491  29.976  21.792  1.00  0.00    -0.219 NA
ATOM     49  H   UNL     1     -44.586  30.515  22.375  1.00  0.00     0.106 H 
BRANCH  46  50
ATOM     50  N   UNL     1     -48.669  29.412  21.183  1.00  0.00    -0.383 N 
ATOM     51  H   UNL     1     -49.537  29.114  21.605  1.00  0.00     0.158 HD
ATOM     52  H   UNL     1     -48.164  28.711  20.655  1.00  0.00     0.158 HD
ENDBRANCH  46  50
ENDBRANCH  34  38
ENDBRANCH   1  29
TORSDOF 8
ENDMDL
MODEL 3
REMARK VINA RESULT:      -9.8      1.365      2.109
REMARK SMILES CCc1cc(N)c2ccc(OCc3cncc(-n4ccc5c(N)ncnc54)c3)cc2n1
REMARK SMILES IDX 12 1 11 4 10 5 3 6 4 7 31 8 5 9 30 11 7 12 29 13 8 14 9 16
REMARK SMILES IDX 2 19 1 22 6 26 13 29 14 30 28 31 15 32 17 34 16 36 18 38
REMARK SMILES IDX 19 39 27 40 20 41 21 43 26 44 22 46 25 47 24 48 23 50
REMARK H PARENT 12 2 12 3 4 10 29 15 8 17 9 18 2 20 2 21 1 23 1 24 1 25 6 27
REMARK H PARENT 6 28 14 33 28 35 16 37 19 42 20 45 25 49 23 51 23 52
REMARK Flexibility Score: inf
ROOT
ATOM      1  C   UNL     1     -47.732  35.903  28.214  1.00  0.00     0.115 C 
ATOM      2  H   UNL     1     -46.726  35.466  28.237  1.00  0.00     0.076 H 
ATOM      3  H   UNL     1     -48.175  35.698  29.196  1.00  0.00     0.076 H 
ENDROOT
BRANCH   1   4
ATOM      4  O   UNL     1     -48.557  35.243  27.252  1.00  0.00    -0.489 OA
BRANCH   4   5
ATOM      5  C   UNL     1     -47.977  34.312  26.434  1.00  0.00     0.122 A 
ATOM      6  C   UNL     1     -48.747  30.080  24.402  1.00  0.00     0.043 A 
ATOM      7  C   UNL     1     -47.528  30.090  23.741  1.00  0.00    -0.017 A 
ATOM      8  N   UNL     1     -49.131  31.076  25.230  1.00  0.00    -0.253 NA
ATOM      9  C   UNL     1     -46.636  31.138  23.968  1.00  0.00     0.043 A 
ATOM     10  H   UNL     1     -47.273  29.284  23.062  1.00  0.00     0.066 H 
ATOM     11  C   UNL     1     -48.316  32.129  25.395  1.00  0.00     0.076 A 
ATOM     12  C   UNL     1     -47.055  32.229  24.770  1.00  0.00     0.023 A 
ATOM     13  C   UNL     1     -48.746  33.167  26.211  1.00  0.00     0.007 A 
ATOM     14  C   UNL     1     -46.291  33.402  24.976  1.00  0.00    -0.047 A 
ATOM     15  H   UNL     1     -49.720  33.081  26.686  1.00  0.00     0.069 H 
ATOM     16  C   UNL     1     -46.749  34.434  25.799  1.00  0.00    -0.019 A 
ATOM     17  H   UNL     1     -45.335  33.534  24.478  1.00  0.00     0.063 H 
ATOM     18  H   UNL     1     -46.131  35.320  25.900  1.00  0.00     0.066 H 
BRANCH   6  19
ATOM     19  C   UNL     1     -49.728  28.958  24.187  1.00  0.00    -0.013 C 
ATOM     20  H   UNL     1     -50.538  29.307  23.536  1.00  0.00     0.033 H 
ATOM     21  H   UNL     1     -50.193  28.680  25.140  1.00  0.00     0.033 H 
BRANCH  19  22
ATOM     22  C   UNL     1     -49.061  27.746  23.555  1.00  0.00    -0.060 C 
ATOM     23  H   UNL     1     -48.482  27.198  24.306  1.00  0.00     0.023 H 
ATOM     24  H   UNL     1     -49.803  27.061  23.132  1.00  0.00     0.023 H 
ATOM     25  H   UNL     1     -48.379  28.042  22.750  1.00  0.00     0.023 H 
ENDBRANCH  19  22
ENDBRANCH   6  19
BRANCH   9  26
ATOM     26  N   UNL     1     -45.439  31.167  23.221  1.00  0.00    -0.398 N 
ATOM     27  H   UNL     1     -44.674  31.635  23.696  1.00  0.00     0.156 HD
ATOM     28  H   UNL     1     -45.555  31.515  22.276  1.00  0.00     0.156 HD
ENDBRANCH   9  26
ENDBRANCH   4   5
ENDBRANCH   1   4
BRANCH   1  29
ATOM     29  C   UNL     1     -47.692  37.400  28.042  1.00  0.00     0.010 A 
ATOM     30  C   UNL     1     -48.847  38.168  28.053  1.00  0.00     0.034 A 
ATOM     31  C   UNL     1     -46.466  38.076  27.922  1.00  0.00    -0.028 A 
ATOM     32  N   UNL     1     -48.853  39.512  27.933  1.00  0.00    -0.262 NA
ATOM     33  H   UNL     1     -49.830  37.717  28.160  1.00  0.00     0.084 H 
ATOM     34  C   UNL     1     -46.429  39.472  27.790  1.00  0.00     0.066 A 
ATOM     35  H   UNL     1     -45.562  37.477  27.924  1.00  0.00     0.065 H 
ATOM     36  C   UNL     1     -47.652  40.132  27.800  1.00  0.00     0.051 A 
ATOM     37  H   UNL     1     -47.756  41.207  27.718  1.00  0.00     0.086 H 
BRANCH  34  38
ATOM     38  N   UNL     1     -45.188  40.175  27.659  1.00  0.00    -0.300 N 
ATOM     39  C   UNL     1     -44.062  39.960  28.447  1.00  0.00     0.012 A 
ATOM     40  C   UNL     1     -44.859  41.184  26.749  1.00  0.00     0.150 A 
ATOM     41  C   UNL     1     -43.052  40.807  28.054  1.00  0.00    -0.031 A 
ATOM     42  H   UNL     1     -44.052  39.230  29.241  1.00  0.00     0.082 H 
ATOM     43  C   UNL     1     -43.546  41.586  26.982  1.00  0.00     0.061 A 
ATOM     44  N   UNL     1     -45.652  41.694  25.785  1.00  0.00    -0.218 NA
ATOM     45  H   UNL     1     -42.063  40.855  28.488  1.00  0.00     0.065 H 
ATOM     46  C   UNL     1     -43.025  42.598  26.163  1.00  0.00     0.136 A 
ATOM     47  C   UNL     1     -45.048  42.647  25.062  1.00  0.00     0.120 A 
ATOM     48  N   UNL     1     -43.800  43.125  25.200  1.00  0.00    -0.219 NA
ATOM     49  H   UNL     1     -45.641  43.092  24.268  1.00  0.00     0.106 H 
BRANCH  46  50
ATOM     50  N   UNL     1     -41.741  43.106  26.292  1.00  0.00    -0.383 N 
ATOM     51  H   UNL     1     -41.544  43.549  27.178  1.00  0.00     0.158 HD
ATOM     52  H   UNL     1     -41.483  43.630  25.463  1.00  0.00     0.158 HD
ENDBRANCH  46  50
ENDBRANCH  34  38
ENDBRANCH   1  29
TORSDOF 8
ENDMDL
MODEL 4
REMARK VINA RESULT:      -9.7      1.543      2.779
REMARK SMILES CCc1cc(N)c2ccc(OCc3cncc(-n4ccc5c(N)ncnc54)c3)cc2n1
REMARK SMILES IDX 12 1 11 4 10 5 3 6 4 7 31 8 5 9 30 11 7 12 29 13 8 14 9 16
REMARK SMILES IDX 2 19 1 22 6 26 13 29 14 30 28 31 15 32 17 34 16 36 18 38
REMARK SMILES IDX 19 39 27 40 20 41 21 43 26 44 22 46 25 47 24 48 23 50
REMARK H PARENT 12 2 12 3 4 10 29 15 8 17 9 18 2 20 2 21 1 23 1 24 1 25 6 27
REMARK H PARENT 6 28 14 33 28 35 16 37 19 42 20 45 25 49 23 51 23 52
REMARK Flexibility Score: inf
ROOT
ATOM      1  C   UNL     1     -46.373  35.069  26.805  1.00  0.00     0.115 C 
ATOM      2  H   UNL     1     -47.319  35.316  26.308  1.00  0.00     0.076 H 
ATOM      3  H   UNL     1     -45.583  35.261  26.069  1.00  0.00     0.076 H 
ENDROOT
BRANCH   1   4
ATOM      4  O   UNL     1     -46.305  33.676  27.117  1.00  0.00    -0.489 OA
BRANCH   4   5
ATOM      5  C   UNL     1     -46.889  32.791  26.253  1.00  0.00     0.122 A 
ATOM      6  C   UNL     1     -46.554  31.058  21.836  1.00  0.00     0.043 A 
ATOM      7  C   UNL     1     -47.614  30.182  22.017  1.00  0.00    -0.017 A 
ATOM      8  N   UNL     1     -46.148  31.914  22.799  1.00  0.00    -0.253 NA
ATOM      9  C   UNL     1     -48.326  30.210  23.216  1.00  0.00     0.043 A 
ATOM     10  H   UNL     1     -47.887  29.490  21.227  1.00  0.00     0.066 H 
ATOM     11  C   UNL     1     -46.774  31.895  23.985  1.00  0.00     0.076 A 
ATOM     12  C   UNL     1     -47.865  31.044  24.265  1.00  0.00     0.023 A 
ATOM     13  C   UNL     1     -46.314  32.747  24.981  1.00  0.00     0.007 A 
ATOM     14  C   UNL     1     -48.427  31.072  25.562  1.00  0.00    -0.047 A 
ATOM     15  H   UNL     1     -45.472  33.397  24.756  1.00  0.00     0.069 H 
ATOM     16  C   UNL     1     -47.943  31.937  26.548  1.00  0.00    -0.019 A 
ATOM     17  H   UNL     1     -49.239  30.402  25.827  1.00  0.00     0.063 H 
ATOM     18  H   UNL     1     -48.397  31.895  27.531  1.00  0.00     0.066 H 
BRANCH   6  19
ATOM     19  C   UNL     1     -45.772  31.060  20.549  1.00  0.00    -0.013 C 
ATOM     20  H   UNL     1     -45.800  30.056  20.109  1.00  0.00     0.033 H 
ATOM     21  H   UNL     1     -44.717  31.281  20.753  1.00  0.00     0.033 H 
BRANCH  19  22
ATOM     22  C   UNL     1     -46.334  32.062  19.554  1.00  0.00    -0.060 C 
ATOM     23  H   UNL     1     -46.930  31.547  18.793  1.00  0.00     0.023 H 
ATOM     24  H   UNL     1     -46.977  32.796  20.051  1.00  0.00     0.023 H 
ATOM     25  H   UNL     1     -45.532  32.609  19.044  1.00  0.00     0.023 H 
ENDBRANCH  19  22
ENDBRANCH   6  19
BRANCH   9  26
ATOM     26  N   UNL     1     -49.347  29.253  23.406  1.00  0.00    -0.398 N 
ATOM     27  H   UNL     1     -49.837  29.352  24.289  1.00  0.00     0.156 HD
ATOM     28  H   UNL     1     -49.044  28.297  23.256  1.00  0.00     0.156 HD
ENDBRANCH   9  26
ENDBRANCH   4   5
ENDBRANCH   1   4
BRANCH   1  29
ATOM     29  C   UNL     1     -46.110  35.962  27.991  1.00  0.00     0.010 A 
ATOM     30  C   UNL     1     -46.587  35.655  29.256  1.00  0.00     0.034 A 
ATOM     31  C   UNL     1     -45.319  37.115  27.858  1.00  0.00    -0.028 A 
ATOM     32  N   UNL     1     -46.349  36.410  30.349  1.00  0.00    -0.262 NA
ATOM     33  H   UNL     1     -47.191  34.770  29.439  1.00  0.00     0.084 H 
ATOM     34  C   UNL     1     -45.053  37.931  28.969  1.00  0.00     0.066 A 
ATOM     35  H   UNL     1     -44.937  37.351  26.871  1.00  0.00     0.065 H 
ATOM     36  C   UNL     1     -45.597  37.528  30.183  1.00  0.00     0.051 A 
ATOM     37  H   UNL     1     -45.453  38.065  31.113  1.00  0.00     0.086 H 
BRANCH  34  38
ATOM     38  N   UNL     1     -44.253  39.113  28.849  1.00  0.00    -0.300 N 
ATOM     39  C   UNL     1     -43.264  39.502  29.746  1.00  0.00     0.012 A 
ATOM     40  C   UNL     1     -44.295  40.086  27.845  1.00  0.00     0.150 A 
ATOM     41  C   UNL     1     -42.699  40.685  29.329  1.00  0.00    -0.031 A 
ATOM     42  H   UNL     1     -43.031  38.923  30.626  1.00  0.00     0.082 H 
ATOM     43  C   UNL     1     -43.344  41.063  28.130  1.00  0.00     0.061 A 
ATOM     44  N   UNL     1     -45.099  40.097  26.762  1.00  0.00    -0.218 NA
ATOM     45  H   UNL     1     -41.902  41.216  29.832  1.00  0.00     0.065 H 
ATOM     46  C   UNL     1     -43.230  42.133  27.231  1.00  0.00     0.136 A 
ATOM     47  C   UNL     1     -44.898  41.161  25.974  1.00  0.00     0.120 A 
ATOM     48  N   UNL     1     -44.026  42.168  26.149  1.00  0.00    -0.219 NA
ATOM     49  H   UNL     1     -45.517  41.219  25.083  1.00  0.00     0.106 H 
BRANCH  46  50
ATOM     50  N   UNL     1     -42.338  43.184  27.396  1.00  0.00    -0.383 N 
ATOM     51  H   UNL     1     -41.726  43.102  28.195  1.00  0.00     0.158 HD
ATOM     52  H   UNL     1     -42.814  44.072  27.286  1.00  0.00     0.158 HD
ENDBRANCH  46  50
ENDBRANCH  34  38
ENDBRANCH   1  29
TORSDOF 8
ENDMDL
MODEL 5
REMARK VINA RESULT:      -9.6      1.779     10.319
REMARK SMILES CCc1cc(N)c2ccc(OCc3cncc(-n4ccc5c(N)ncnc54)c3)cc2n1
REMARK SMILES IDX 12 1 11 4 10 5 3 6 4 7 31 8 5 9 30 11 7 12 29 13 8 14 9 16
REMARK SMILES IDX 2 19 1 22 6 26 13 29 14 30 28 31 15 32 17 34 16 36 18 38
REMARK SMILES IDX 19 39 27 40 20 41 21 43 26 44 22 46 25 47 24 48 23 50
REMARK H PARENT 12 2 12 3 4 10 29 15 8 17 9 18 2 20 2 21 1 23 1 24 1 25 6 27
REMARK H PARENT 6 28 14 33 28 35 16 37 19 42 20 45 25 49 23 51 23 52
REMARK Flexibility Score: inf
ROOT
ATOM      1  C   UNL     1     -48.102  36.353  27.498  1.00  0.00     0.115 C 
ATOM      2  H   UNL     1     -48.366  36.885  26.575  1.00  0.00     0.076 H 
ATOM      3  H   UNL     1     -49.036  36.230  28.057  1.00  0.00     0.076 H 
ENDROOT
BRANCH   1   4
ATOM      4  O   UNL     1     -47.241  37.145  28.318  1.00  0.00    -0.489 OA
BRANCH   4   5
ATOM      5  C   UNL     1     -46.716  38.292  27.787  1.00  0.00     0.122 A 
ATOM      6  C   UNL     1     -42.976  41.216  28.089  1.00  0.00     0.043 A 
ATOM      7  C   UNL     1     -43.436  42.033  27.066  1.00  0.00    -0.017 A 
ATOM      8  N   UNL     1     -43.670  40.143  28.526  1.00  0.00    -0.253 NA
ATOM      9  C   UNL     1     -44.680  41.774  26.491  1.00  0.00     0.043 A 
ATOM     10  H   UNL     1     -42.832  42.868  26.726  1.00  0.00     0.066 H 
ATOM     11  C   UNL     1     -44.831  39.837  27.927  1.00  0.00     0.076 A 
ATOM     12  C   UNL     1     -45.384  40.608  26.883  1.00  0.00     0.023 A 
ATOM     13  C   UNL     1     -45.508  38.702  28.356  1.00  0.00     0.007 A 
ATOM     14  C   UNL     1     -46.593  40.174  26.291  1.00  0.00    -0.047 A 
ATOM     15  H   UNL     1     -45.073  38.114  29.161  1.00  0.00     0.069 H 
ATOM     16  C   UNL     1     -47.252  39.026  26.738  1.00  0.00    -0.019 A 
ATOM     17  H   UNL     1     -47.026  40.717  25.456  1.00  0.00     0.063 H 
ATOM     18  H   UNL     1     -48.162  38.728  26.230  1.00  0.00     0.066 H 
BRANCH   6  19
ATOM     19  C   UNL     1     -41.642  41.475  28.736  1.00  0.00    -0.013 C 
ATOM     20  H   UNL     1     -41.477  40.735  29.528  1.00  0.00     0.033 H 
ATOM     21  H   UNL     1     -41.647  42.457  29.223  1.00  0.00     0.033 H 
BRANCH  19  22
ATOM     22  C   UNL     1     -40.506  41.396  27.728  1.00  0.00    -0.060 C 
ATOM     23  H   UNL     1     -40.349  42.372  27.257  1.00  0.00     0.023 H 
ATOM     24  H   UNL     1     -39.570  41.095  28.209  1.00  0.00     0.023 H 
ATOM     25  H   UNL     1     -40.726  40.670  26.937  1.00  0.00     0.023 H 
ENDBRANCH  19  22
ENDBRANCH   6  19
BRANCH   9  26
ATOM     26  N   UNL     1     -45.087  42.569  25.398  1.00  0.00    -0.398 N 
ATOM     27  H   UNL     1     -45.808  42.139  24.828  1.00  0.00     0.156 HD
ATOM     28  H   UNL     1     -44.318  42.907  24.829  1.00  0.00     0.156 HD
ENDBRANCH   9  26
ENDBRANCH   4   5
ENDBRANCH   1   4
BRANCH   1  29
ATOM     29  C   UNL     1     -47.561  34.974  27.218  1.00  0.00     0.010 A 
ATOM     30  C   UNL     1     -46.566  34.407  28.000  1.00  0.00     0.034 A 
ATOM     31  C   UNL     1     -48.094  34.192  26.181  1.00  0.00    -0.028 A 
ATOM     32  N   UNL     1     -46.075  33.166  27.803  1.00  0.00    -0.262 NA
ATOM     33  H   UNL     1     -46.117  34.946  28.831  1.00  0.00     0.084 H 
ATOM     34  C   UNL     1     -47.608  32.898  25.939  1.00  0.00     0.066 A 
ATOM     35  H   UNL     1     -48.880  34.630  25.575  1.00  0.00     0.065 H 
ATOM     36  C   UNL     1     -46.599  32.443  26.780  1.00  0.00     0.051 A 
ATOM     37  H   UNL     1     -46.151  31.460  26.703  1.00  0.00     0.086 H 
BRANCH  34  38
ATOM     38  N   UNL     1     -48.137  32.089  24.880  1.00  0.00    -0.300 N 
ATOM     39  C   UNL     1     -49.487  31.823  24.678  1.00  0.00     0.012 A 
ATOM     40  C   UNL     1     -47.437  31.426  23.869  1.00  0.00     0.150 A 
ATOM     41  C   UNL     1     -49.640  31.013  23.576  1.00  0.00    -0.031 A 
ATOM     42  H   UNL     1     -50.250  32.215  25.332  1.00  0.00     0.082 H 
ATOM     43  C   UNL     1     -48.350  30.756  23.059  1.00  0.00     0.061 A 
ATOM     44  N   UNL     1     -46.102  31.428  23.673  1.00  0.00    -0.218 NA
ATOM     45  H   UNL     1     -50.581  30.652  23.184  1.00  0.00     0.065 H 
ATOM     46  C   UNL     1     -47.838  30.026  21.976  1.00  0.00     0.136 A 
ATOM     47  C   UNL     1     -45.729  30.704  22.609  1.00  0.00     0.120 A 
ATOM     48  N   UNL     1     -46.511  30.007  21.767  1.00  0.00    -0.219 NA
ATOM     49  H   UNL     1     -44.664  30.672  22.402  1.00  0.00     0.106 H 
BRANCH  46  50
ATOM     50  N   UNL     1     -48.628  29.298  21.097  1.00  0.00    -0.383 N 
ATOM     51  H   UNL     1     -49.375  29.821  20.662  1.00  0.00     0.158 HD
ATOM     52  H   UNL     1     -48.885  28.407  21.507  1.00  0.00     0.158 HD
ENDBRANCH  46  50
ENDBRANCH  34  38
ENDBRANCH   1  29
TORSDOF 8
ENDMDL
MODEL 6
REMARK VINA RESULT:      -9.5      2.007      3.440
REMARK SMILES CCc1cc(N)c2ccc(OCc3cncc(-n4ccc5c(N)ncnc54)c3)cc2n1
REMARK SMILES IDX 12 1 11 4 10 5 3 6 4 7 31 8 5 9 30 11 7 12 29 13 8 14 9 16
REMARK SMILES IDX 2 19 1 22 6 26 13 29 14 30 28 31 15 32 17 34 16 36 18 38
REMARK SMILES IDX 19 39 27 40 20 41 21 43 26 44 22 46 25 47 24 48 23 50
REMARK H PARENT 12 2 12 3 4 10 29 15 8 17 9 18 2 20 2 21 1 23 1 24 1 25 6 27
REMARK H PARENT 6 28 14 33 28 35 16 37 19 42 20 45 25 49 23 51 23 52
REMARK Flexibility Score: inf
ROOT
ATOM      1  C   UNL     1     -47.357  33.641  25.847  1.00  0.00     0.115 C 
ATOM      2  H   UNL     1     -47.696  33.723  24.807  1.00  0.00     0.076 H 
ATOM      3  H   UNL     1     -46.267  33.539  25.805  1.00  0.00     0.076 H 
ENDROOT
BRANCH   1   4
ATOM      4  O   UNL     1     -47.851  32.445  26.455  1.00  0.00    -0.489 OA
BRANCH   4   5
ATOM      5  C   UNL     1     -48.415  31.495  25.648  1.00  0.00     0.122 A 
ATOM      6  C   UNL     1     -49.290  26.828  25.369  1.00  0.00     0.043 A 
ATOM      7  C   UNL     1     -49.951  26.946  24.155  1.00  0.00    -0.017 A 
ATOM      8  N   UNL     1     -48.738  27.886  26.000  1.00  0.00    -0.253 NA
ATOM      9  C   UNL     1     -50.013  28.192  23.530  1.00  0.00     0.043 A 
ATOM     10  H   UNL     1     -50.406  26.075  23.698  1.00  0.00     0.066 H 
ATOM     11  C   UNL     1     -48.859  29.103  25.448  1.00  0.00     0.076 A 
ATOM     12  C   UNL     1     -49.508  29.325  24.215  1.00  0.00     0.023 A 
ATOM     13  C   UNL     1     -48.328  30.188  26.133  1.00  0.00     0.007 A 
ATOM     14  C   UNL     1     -49.619  30.654  23.741  1.00  0.00    -0.047 A 
ATOM     15  H   UNL     1     -47.831  30.006  27.083  1.00  0.00     0.069 H 
ATOM     16  C   UNL     1     -49.079  31.728  24.452  1.00  0.00    -0.019 A 
ATOM     17  H   UNL     1     -50.149  30.868  22.818  1.00  0.00     0.063 H 
ATOM     18  H   UNL     1     -49.217  32.727  24.052  1.00  0.00     0.066 H 
BRANCH   6  19
ATOM     19  C   UNL     1     -49.198  25.496  26.065  1.00  0.00    -0.013 C 
ATOM     20  H   UNL     1     -49.662  24.727  25.435  1.00  0.00     0.033 H 
ATOM     21  H   UNL     1     -49.772  25.521  26.998  1.00  0.00     0.033 H 
BRANCH  19  22
ATOM     22  C   UNL     1     -47.754  25.111  26.348  1.00  0.00    -0.060 C 
ATOM     23  H   UNL     1     -47.397  25.618  27.250  1.00  0.00     0.023 H 
ATOM     24  H   UNL     1     -47.654  24.032  26.502  1.00  0.00     0.023 H 
ATOM     25  H   UNL     1     -47.097  25.394  25.517  1.00  0.00     0.023 H 
ENDBRANCH  19  22
ENDBRANCH   6  19
BRANCH   9  26
ATOM     26  N   UNL     1     -50.760  28.302  22.338  1.00  0.00    -0.398 N 
ATOM     27  H   UNL     1     -50.839  27.430  21.824  1.00  0.00     0.156 HD
ATOM     28  H   UNL     1     -50.460  29.060  21.735  1.00  0.00     0.156 HD
ENDBRANCH   9  26
ENDBRANCH   4   5
ENDBRANCH   1   4
BRANCH   1  29
ATOM     29  C   UNL     1     -47.663  34.886  26.639  1.00  0.00     0.010 A 
ATOM     30  C   UNL     1     -48.964  35.251  26.953  1.00  0.00     0.034 A 
ATOM     31  C   UNL     1     -46.626  35.693  27.135  1.00  0.00    -0.028 A 
ATOM     32  N   UNL     1     -49.279  36.340  27.684  1.00  0.00    -0.262 NA
ATOM     33  H   UNL     1     -49.817  34.666  26.618  1.00  0.00     0.084 H 
ATOM     34  C   UNL     1     -46.912  36.838  27.896  1.00  0.00     0.066 A 
ATOM     35  H   UNL     1     -45.608  35.403  26.899  1.00  0.00     0.065 H 
ATOM     36  C   UNL     1     -48.254  37.109  28.133  1.00  0.00     0.051 A 
ATOM     37  H   UNL     1     -48.602  37.954  28.715  1.00  0.00     0.086 H 
BRANCH  34  38
ATOM     38  N   UNL     1     -45.866  37.674  28.404  1.00  0.00    -0.300 N 
ATOM     39  C   UNL     1     -45.171  37.453  29.588  1.00  0.00     0.012 A 
ATOM     40  C   UNL     1     -45.342  38.841  27.839  1.00  0.00     0.150 A 
ATOM     41  C   UNL     1     -44.240  38.449  29.773  1.00  0.00    -0.031 A 
ATOM     42  H   UNL     1     -45.388  36.612  30.228  1.00  0.00     0.082 H 
ATOM     43  C   UNL     1     -44.341  39.331  28.673  1.00  0.00     0.061 A 
ATOM     44  N   UNL     1     -45.712  39.413  26.675  1.00  0.00    -0.218 NA
ATOM     45  H   UNL     1     -43.557  38.527  30.607  1.00  0.00     0.065 H 
ATOM     46  C   UNL     1     -43.687  40.506  28.275  1.00  0.00     0.136 A 
ATOM     47  C   UNL     1     -45.017  40.523  26.394  1.00  0.00     0.120 A 
ATOM     48  N   UNL     1     -44.045  41.097  27.123  1.00  0.00    -0.219 NA
ATOM     49  H   UNL     1     -45.272  41.024  25.465  1.00  0.00     0.106 H 
BRANCH  46  50
ATOM     50  N   UNL     1     -42.684  41.116  29.014  1.00  0.00    -0.383 N 
ATOM     51  H   UNL     1     -42.517  42.086  28.789  1.00  0.00     0.158 HD
ATOM     52  H   UNL     1     -41.865  40.520  29.058  1.00  0.00     0.158 HD
ENDBRANCH  46  50
ENDBRANCH  34  38
ENDBRANCH   1  29
TORSDOF 8
ENDMDL
MODEL 7
REMARK VINA RESULT:      -9.5      2.415     11.222
REMARK SMILES CCc1cc(N)c2ccc(OCc3cncc(-n4ccc5c(N)ncnc54)c3)cc2n1
REMARK SMILES IDX 12 1 11 4 10 5 3 6 4 7 31 8 5 9 30 11 7 12 29 13 8 14 9 16
REMARK SMILES IDX 2 19 1 22 6 26 13 29 14 30 28 31 15 32 17 34 16 36 18 38
REMARK SMILES IDX 19 39 27 40 20 41 21 43 26 44 22 46 25 47 24 48 23 50
REMARK H PARENT 12 2 12 3 4 10 29 15 8 17 9 18 2 20 2 21 1 23 1 24 1 25 6 27
REMARK H PARENT 6 28 14 33 28 35 16 37 19 42 20 45 25 49 23 51 23 52
REMARK Flexibility Score: inf
ROOT
ATOM      1  C   UNL     1     -46.131  32.865  24.391  1.00  0.00     0.115 C 
ATOM      2  H   UNL     1     -45.088  33.120  24.165  1.00  0.00     0.076 H 
ATOM      3  H   UNL     1     -46.740  33.673  23.969  1.00  0.00     0.076 H 
ENDROOT
BRANCH   1   4
ATOM      4  O   UNL     1     -46.369  32.873  25.800  1.00  0.00    -0.489 OA
BRANCH   4   5
ATOM      5  C   UNL     1     -46.922  33.994  26.356  1.00  0.00     0.122 A 
ATOM      6  C   UNL     1     -45.793  38.209  28.251  1.00  0.00     0.043 A 
ATOM      7  C   UNL     1     -47.120  38.563  28.444  1.00  0.00    -0.017 A 
ATOM      8  N   UNL     1     -45.430  37.015  27.733  1.00  0.00    -0.253 NA
ATOM      9  C   UNL     1     -48.124  37.644  28.140  1.00  0.00     0.043 A 
ATOM     10  H   UNL     1     -47.368  39.544  28.835  1.00  0.00     0.066 H 
ATOM     11  C   UNL     1     -46.389  36.153  27.363  1.00  0.00     0.076 A 
ATOM     12  C   UNL     1     -47.765  36.420  27.523  1.00  0.00     0.023 A 
ATOM     13  C   UNL     1     -46.000  34.950  26.788  1.00  0.00     0.007 A 
ATOM     14  C   UNL     1     -48.696  35.461  27.060  1.00  0.00    -0.047 A 
ATOM     15  H   UNL     1     -44.937  34.755  26.667  1.00  0.00     0.069 H 
ATOM     16  C   UNL     1     -48.278  34.260  26.481  1.00  0.00    -0.019 A 
ATOM     17  H   UNL     1     -49.763  35.650  27.126  1.00  0.00     0.063 H 
ATOM     18  H   UNL     1     -49.038  33.574  26.121  1.00  0.00     0.066 H 
BRANCH   6  19
ATOM     19  C   UNL     1     -44.685  39.174  28.579  1.00  0.00    -0.013 C 
ATOM     20  H   UNL     1     -43.807  38.613  28.918  1.00  0.00     0.033 H 
ATOM     21  H   UNL     1     -44.986  39.817  29.414  1.00  0.00     0.033 H 
BRANCH  19  22
ATOM     22  C   UNL     1     -44.308  40.023  27.374  1.00  0.00    -0.060 C 
ATOM     23  H   UNL     1     -43.502  40.716  27.636  1.00  0.00     0.023 H 
ATOM     24  H   UNL     1     -43.964  39.399  26.543  1.00  0.00     0.023 H 
ATOM     25  H   UNL     1     -45.161  40.613  27.021  1.00  0.00     0.023 H 
ENDBRANCH  19  22
ENDBRANCH   6  19
BRANCH   9  26
ATOM     26  N   UNL     1     -49.467  38.058  28.268  1.00  0.00    -0.398 N 
ATOM     27  H   UNL     1     -50.120  37.495  27.733  1.00  0.00     0.156 HD
ATOM     28  H   UNL     1     -49.607  39.048  28.097  1.00  0.00     0.156 HD
ENDBRANCH   9  26
ENDBRANCH   4   5
ENDBRANCH   1   4
BRANCH   1  29
ATOM     29  C   UNL     1     -46.556  31.584  23.718  1.00  0.00     0.010 A 
ATOM     30  C   UNL     1     -45.914  31.106  22.585  1.00  0.00     0.034 A 
ATOM     31  C   UNL     1     -47.587  30.799  24.258  1.00  0.00    -0.028 A 
ATOM     32  N   UNL     1     -46.242  29.951  21.971  1.00  0.00    -0.262 NA
ATOM     33  H   UNL     1     -45.096  31.651  22.122  1.00  0.00     0.084 H 
ATOM     34  C   UNL     1     -47.963  29.593  23.647  1.00  0.00     0.066 A 
ATOM     35  H   UNL     1     -48.083  31.167  25.150  1.00  0.00     0.065 H 
ATOM     36  C   UNL     1     -47.257  29.225  22.508  1.00  0.00     0.051 A 
ATOM     37  H   UNL     1     -47.443  28.313  21.954  1.00  0.00     0.086 H 
BRANCH  34  38
ATOM     38  N   UNL     1     -49.018  28.784  24.181  1.00  0.00    -0.300 N 
ATOM     39  C   UNL     1     -50.372  28.961  23.919  1.00  0.00     0.012 A 
ATOM     40  C   UNL     1     -48.912  27.689  25.044  1.00  0.00     0.150 A 
ATOM     41  C   UNL     1     -51.104  28.014  24.595  1.00  0.00    -0.031 A 
ATOM     42  H   UNL     1     -50.730  29.753  23.279  1.00  0.00     0.082 H 
ATOM     43  C   UNL     1     -50.191  27.206  25.311  1.00  0.00     0.061 A 
ATOM     44  N   UNL     1     -47.777  27.156  25.541  1.00  0.00    -0.218 NA
ATOM     45  H   UNL     1     -52.180  27.911  24.571  1.00  0.00     0.065 H 
ATOM     46  C   UNL     1     -50.297  26.097  26.163  1.00  0.00     0.136 A 
ATOM     47  C   UNL     1     -48.000  26.101  26.336  1.00  0.00     0.120 A 
ATOM     48  N   UNL     1     -49.179  25.555  26.675  1.00  0.00    -0.219 NA
ATOM     49  H   UNL     1     -47.119  25.630  26.762  1.00  0.00     0.106 H 
BRANCH  46  50
ATOM     50  N   UNL     1     -51.505  25.521  26.528  1.00  0.00    -0.383 N 
ATOM     51  H   UNL     1     -51.452  24.546  26.788  1.00  0.00     0.158 HD
ATOM     52  H   UNL     1     -52.230  25.768  25.864  1.00  0.00     0.158 HD
ENDBRANCH  46  50
ENDBRANCH  34  38
ENDBRANCH   1  29
TORSDOF 8
ENDMDL
