MODEL 1
REMARK VINA RESULT:     -10.8      0.000      0.000
REMARK SMILES O=C(NCc1ccc2cc(CNC3CCC3)[nH]c2c1)c1cc(=O)n2ccccc2n1
REMARK SMILES IDX 5 1 6 2 7 3 8 4 9 5 10 6 17 7 18 8 19 9 4 15 3 18 1 19 2 20
REMARK SMILES IDX 20 22 21 23 30 24 22 25 29 27 23 28 24 29 28 30 25 31 27 32
REMARK SMILES IDX 26 34 11 38 12 41 13 43 14 44 16 45 15 47
REMARK H PARENT 6 10 7 11 9 12 17 13 19 14 4 16 4 17 3 21 21 26 28 33 25 35
REMARK H PARENT 27 36 26 37 11 39 11 40 12 42 13 46 14 48 14 49 16 50 16 51
REMARK H PARENT 15 52 15 53
REMARK Flexibility Score: inf
ROOT
ATOM      1  C   UNL     1     -47.977  34.181  26.288  1.00  0.00    -0.027 A 
ATOM      2  C   UNL     1     -46.799  34.226  25.533  1.00  0.00    -0.057 A 
ATOM      3  C   UNL     1     -46.372  33.117  24.790  1.00  0.00    -0.052 A 
ATOM      4  C   UNL     1     -47.146  31.942  24.798  1.00  0.00    -0.000 A 
ATOM      5  C   UNL     1     -47.017  30.667  24.181  1.00  0.00    -0.032 A 
ATOM      6  C   UNL     1     -48.100  29.898  24.555  1.00  0.00     0.030 A 
ATOM      7  N   UNL     1     -48.882  30.676  25.378  1.00  0.00    -0.357 N 
ATOM      8  C   UNL     1     -48.321  31.919  25.546  1.00  0.00     0.046 A 
ATOM      9  C   UNL     1     -48.763  33.016  26.295  1.00  0.00    -0.033 A 
ATOM     10  H   UNL     1     -46.194  35.131  25.515  1.00  0.00     0.063 H 
ATOM     11  H   UNL     1     -45.453  33.166  24.214  1.00  0.00     0.063 H 
ATOM     12  H   UNL     1     -46.214  30.349  23.529  1.00  0.00     0.065 H 
ATOM     13  H   UNL     1     -49.732  30.353  25.821  1.00  0.00     0.166 HD
ATOM     14  H   UNL     1     -49.689  32.970  26.863  1.00  0.00     0.065 H 
ENDROOT
BRANCH   1  15
ATOM     15  C   UNL     1     -48.435  35.392  27.065  1.00  0.00     0.043 C 
ATOM     16  H   UNL     1     -48.790  35.097  28.059  1.00  0.00     0.054 H 
ATOM     17  H   UNL     1     -49.272  35.877  26.552  1.00  0.00     0.054 H 
BRANCH  15  18
ATOM     18  N   UNL     1     -47.348  36.319  27.256  1.00  0.00    -0.347 N 
ATOM     19  O   UNL     1     -46.981  35.864  29.482  1.00  0.00    -0.268 OA
ATOM     20  C   UNL     1     -46.758  36.530  28.478  1.00  0.00     0.270 C 
ATOM     21  H   UNL     1     -47.161  37.018  26.544  1.00  0.00     0.164 HD
BRANCH  20  22
ATOM     22  C   UNL     1     -45.801  37.698  28.456  1.00  0.00     0.136 A 
ATOM     23  C   UNL     1     -45.008  37.834  29.522  1.00  0.00     0.035 A 
ATOM     24  N   UNL     1     -45.806  38.541  27.368  1.00  0.00    -0.225 NA
ATOM     25  C   UNL     1     -44.066  38.960  29.548  1.00  0.00     0.258 A 
ATOM     26  H   UNL     1     -45.016  37.166  30.373  1.00  0.00     0.071 H 
ATOM     27  C   UNL     1     -44.974  39.536  27.397  1.00  0.00     0.140 A 
ATOM     28  O   UNL     1     -43.329  39.091  30.524  1.00  0.00    -0.269 OA
ATOM     29  N   UNL     1     -44.093  39.796  28.441  1.00  0.00    -0.268 N 
ATOM     30  C   UNL     1     -44.947  40.478  26.241  1.00  0.00    -0.019 A 
ATOM     31  C   UNL     1     -43.230  40.886  28.395  1.00  0.00     0.014 A 
ATOM     32  C   UNL     1     -44.099  41.513  26.242  1.00  0.00    -0.057 A 
ATOM     33  H   UNL     1     -45.630  40.286  25.424  1.00  0.00     0.066 H 
ATOM     34  C   UNL     1     -43.211  41.727  27.353  1.00  0.00    -0.045 A 
ATOM     35  H   UNL     1     -42.568  41.028  29.246  1.00  0.00     0.082 H 
ATOM     36  H   UNL     1     -44.064  42.210  25.410  1.00  0.00     0.062 H 
ATOM     37  H   UNL     1     -42.534  42.574  27.328  1.00  0.00     0.064 H 
ENDBRANCH  20  22
ENDBRANCH  15  18
ENDBRANCH   1  15
BRANCH   6  38
ATOM     38  C   UNL     1     -48.488  28.505  24.205  1.00  0.00     0.036 C 
ATOM     39  H   UNL     1     -49.513  28.329  24.551  1.00  0.00     0.049 H 
ATOM     40  H   UNL     1     -48.476  28.380  23.115  1.00  0.00     0.049 H 
BRANCH  38  41
ATOM     41  N   UNL     1     -47.552  27.573  24.833  1.00  0.00    -0.308 NA
ATOM     42  H   UNL     1     -47.379  26.821  24.164  1.00  0.00     0.123 HD
BRANCH  41  43
ATOM     43  C   UNL     1     -48.112  27.095  26.105  1.00  0.00     0.007 C 
ATOM     44  C   UNL     1     -47.016  26.352  26.905  1.00  0.00    -0.038 C 
ATOM     45  C   UNL     1     -48.773  25.718  25.859  1.00  0.00    -0.038 C 
ATOM     46  H   UNL     1     -48.728  27.813  26.655  1.00  0.00     0.046 H 
ATOM     47  C   UNL     1     -47.420  25.052  26.178  1.00  0.00    -0.050 C 
ATOM     48  H   UNL     1     -45.978  26.668  26.766  1.00  0.00     0.028 H 
ATOM     49  H   UNL     1     -47.221  26.321  27.982  1.00  0.00     0.028 H 
ATOM     50  H   UNL     1     -49.178  25.521  24.863  1.00  0.00     0.028 H 
ATOM     51  H   UNL     1     -49.550  25.480  26.596  1.00  0.00     0.028 H 
ATOM     52  H   UNL     1     -46.813  24.833  25.292  1.00  0.00     0.027 H 
ATOM     53  H   UNL     1     -47.468  24.157  26.803  1.00  0.00     0.027 H 
ENDBRANCH  41  43
ENDBRANCH  38  41
ENDBRANCH   6  38
TORSDOF 6
ENDMDL
MODEL 2
REMARK VINA RESULT:     -10.3      1.442      2.092
REMARK SMILES O=C(NCc1ccc2cc(CNC3CCC3)[nH]c2c1)c1cc(=O)n2ccccc2n1
REMARK SMILES IDX 5 1 6 2 7 3 8 4 9 5 10 6 17 7 18 8 19 9 4 15 3 18 1 19 2 20
REMARK SMILES IDX 20 22 21 23 30 24 22 25 29 27 23 28 24 29 28 30 25 31 27 32
REMARK SMILES IDX 26 34 11 38 12 41 13 43 14 44 16 45 15 47
REMARK H PARENT 6 10 7 11 9 12 17 13 19 14 4 16 4 17 3 21 21 26 28 33 25 35
REMARK H PARENT 27 36 26 37 11 39 11 40 12 42 13 46 14 48 14 49 16 50 16 51
REMARK H PARENT 15 52 15 53
REMARK Flexibility Score: inf
ROOT
ATOM      1  C   UNL     1     -47.869  34.870  26.550  1.00  0.00    -0.027 A 
ATOM      2  C   UNL     1     -46.628  34.778  25.908  1.00  0.00    -0.057 A 
ATOM      3  C   UNL     1     -46.278  33.641  25.167  1.00  0.00    -0.052 A 
ATOM      4  C   UNL     1     -47.194  32.578  25.060  1.00  0.00    -0.000 A 
ATOM      5  C   UNL     1     -47.172  31.313  24.410  1.00  0.00    -0.032 A 
ATOM      6  C   UNL     1     -48.376  30.685  24.654  1.00  0.00     0.030 A 
ATOM      7  N   UNL     1     -49.127  31.538  25.430  1.00  0.00    -0.357 N 
ATOM      8  C   UNL     1     -48.429  32.692  25.695  1.00  0.00     0.046 A 
ATOM      9  C   UNL     1     -48.795  33.818  26.441  1.00  0.00    -0.033 A 
ATOM     10  H   UNL     1     -45.913  35.595  25.979  1.00  0.00     0.063 H 
ATOM     11  H   UNL     1     -45.309  33.582  24.680  1.00  0.00     0.063 H 
ATOM     12  H   UNL     1     -46.357  30.909  23.824  1.00  0.00     0.065 H 
ATOM     13  H   UNL     1     -50.050  31.320  25.781  1.00  0.00     0.166 HD
ATOM     14  H   UNL     1     -49.770  33.881  26.919  1.00  0.00     0.065 H 
ENDROOT
BRANCH   1  15
ATOM     15  C   UNL     1     -48.240  36.111  27.325  1.00  0.00     0.043 C 
ATOM     16  H   UNL     1     -48.456  35.858  28.369  1.00  0.00     0.054 H 
ATOM     17  H   UNL     1     -49.144  36.564  26.906  1.00  0.00     0.054 H 
BRANCH  15  18
ATOM     18  N   UNL     1     -47.152  37.055  27.330  1.00  0.00    -0.347 N 
ATOM     19  O   UNL     1     -46.626  36.865  29.562  1.00  0.00    -0.268 OA
ATOM     20  C   UNL     1     -46.480  37.410  28.474  1.00  0.00     0.270 C 
ATOM     21  H   UNL     1     -47.022  37.667  26.530  1.00  0.00     0.164 HD
BRANCH  20  22
ATOM     22  C   UNL     1     -45.539  38.569  28.249  1.00  0.00     0.136 A 
ATOM     23  C   UNL     1     -45.746  39.295  27.149  1.00  0.00     0.035 A 
ATOM     24  N   UNL     1     -44.539  38.799  29.166  1.00  0.00    -0.225 NA
ATOM     25  C   UNL     1     -44.850  40.428  26.885  1.00  0.00     0.258 A 
ATOM     26  H   UNL     1     -46.535  39.102  26.433  1.00  0.00     0.071 H 
ATOM     27  C   UNL     1     -43.747  39.800  28.927  1.00  0.00     0.140 A 
ATOM     28  O   UNL     1     -45.035  41.106  25.875  1.00  0.00    -0.269 OA
ATOM     29  N   UNL     1     -43.849  40.637  27.822  1.00  0.00    -0.268 N 
ATOM     30  C   UNL     1     -42.647  40.085  29.892  1.00  0.00    -0.019 A 
ATOM     31  C   UNL     1     -42.959  41.691  27.639  1.00  0.00     0.014 A 
ATOM     32  C   UNL     1     -41.815  41.110  29.673  1.00  0.00    -0.057 A 
ATOM     33  H   UNL     1     -42.557  39.438  30.754  1.00  0.00     0.066 H 
ATOM     34  C   UNL     1     -41.974  41.942  28.509  1.00  0.00    -0.045 A 
ATOM     35  H   UNL     1     -43.098  42.306  26.752  1.00  0.00     0.082 H 
ATOM     36  H   UNL     1     -41.007  41.335  30.362  1.00  0.00     0.062 H 
ATOM     37  H   UNL     1     -41.285  42.766  28.356  1.00  0.00     0.064 H 
ENDBRANCH  20  22
ENDBRANCH  15  18
ENDBRANCH   1  15
BRANCH   6  38
ATOM     38  C   UNL     1     -48.905  29.364  24.218  1.00  0.00     0.036 C 
ATOM     39  H   UNL     1     -49.959  29.483  23.938  1.00  0.00     0.049 H 
ATOM     40  H   UNL     1     -48.359  29.022  23.330  1.00  0.00     0.049 H 
BRANCH  38  41
ATOM     41  N   UNL     1     -48.754  28.401  25.309  1.00  0.00    -0.308 NA
ATOM     42  H   UNL     1     -47.952  28.699  25.867  1.00  0.00     0.123 HD
BRANCH  41  43
ATOM     43  C   UNL     1     -48.600  27.049  24.754  1.00  0.00     0.007 C 
ATOM     44  C   UNL     1     -49.976  26.344  24.723  1.00  0.00    -0.038 C 
ATOM     45  C   UNL     1     -48.210  26.092  25.906  1.00  0.00    -0.038 C 
ATOM     46  H   UNL     1     -47.980  26.969  23.856  1.00  0.00     0.046 H 
ATOM     47  C   UNL     1     -49.710  25.843  26.158  1.00  0.00    -0.050 C 
ATOM     48  H   UNL     1     -50.868  26.965  24.598  1.00  0.00     0.028 H 
ATOM     49  H   UNL     1     -50.022  25.530  23.988  1.00  0.00     0.028 H 
ATOM     50  H   UNL     1     -47.648  26.512  26.745  1.00  0.00     0.028 H 
ATOM     51  H   UNL     1     -47.681  25.197  25.557  1.00  0.00     0.028 H 
ATOM     52  H   UNL     1     -50.141  26.482  26.937  1.00  0.00     0.027 H 
ATOM     53  H   UNL     1     -49.991  24.806  26.356  1.00  0.00     0.027 H 
ENDBRANCH  41  43
ENDBRANCH  38  41
ENDBRANCH   6  38
TORSDOF 6
ENDMDL
MODEL 3
REMARK VINA RESULT:      -9.9      2.026      2.868
REMARK SMILES O=C(NCc1ccc2cc(CNC3CCC3)[nH]c2c1)c1cc(=O)n2ccccc2n1
REMARK SMILES IDX 5 1 6 2 7 3 8 4 9 5 10 6 17 7 18 8 19 9 4 15 3 18 1 19 2 20
REMARK SMILES IDX 20 22 21 23 30 24 22 25 29 27 23 28 24 29 28 30 25 31 27 32
REMARK SMILES IDX 26 34 11 38 12 41 13 43 14 44 16 45 15 47
REMARK H PARENT 6 10 7 11 9 12 17 13 19 14 4 16 4 17 3 21 21 26 28 33 25 35
REMARK H PARENT 27 36 26 37 11 39 11 40 12 42 13 46 14 48 14 49 16 50 16 51
REMARK H PARENT 15 52 15 53
REMARK Flexibility Score: inf
ROOT
ATOM      1  C   UNL     1     -47.894  35.932  27.032  1.00  0.00    -0.027 A 
ATOM      2  C   UNL     1     -46.598  35.719  26.545  1.00  0.00    -0.057 A 
ATOM      3  C   UNL     1     -46.248  34.514  25.920  1.00  0.00    -0.052 A 
ATOM      4  C   UNL     1     -47.218  33.505  25.774  1.00  0.00    -0.000 A 
ATOM      5  C   UNL     1     -47.211  32.199  25.210  1.00  0.00    -0.032 A 
ATOM      6  C   UNL     1     -48.476  31.666  25.352  1.00  0.00     0.030 A 
ATOM      7  N   UNL     1     -49.247  32.615  25.983  1.00  0.00    -0.357 N 
ATOM      8  C   UNL     1     -48.504  33.739  26.254  1.00  0.00     0.046 A 
ATOM      9  C   UNL     1     -48.873  34.935  26.883  1.00  0.00    -0.033 A 
ATOM     10  H   UNL     1     -45.841  36.493  26.648  1.00  0.00     0.063 H 
ATOM     11  H   UNL     1     -45.238  34.362  25.553  1.00  0.00     0.063 H 
ATOM     12  H   UNL     1     -46.367  31.706  24.747  1.00  0.00     0.065 H 
ATOM     13  H   UNL     1     -50.217  32.479  26.238  1.00  0.00     0.166 HD
ATOM     14  H   UNL     1     -49.887  35.090  27.241  1.00  0.00     0.065 H 
ENDROOT
BRANCH   1  15
ATOM     15  C   UNL     1     -48.261  37.244  27.683  1.00  0.00     0.043 C 
ATOM     16  H   UNL     1     -48.601  37.079  28.711  1.00  0.00     0.054 H 
ATOM     17  H   UNL     1     -49.085  37.718  27.139  1.00  0.00     0.054 H 
BRANCH  15  18
ATOM     18  N   UNL     1     -47.120  38.121  27.744  1.00  0.00    -0.347 N 
ATOM     19  O   UNL     1     -48.203  40.034  27.062  1.00  0.00    -0.268 OA
ATOM     20  C   UNL     1     -47.173  39.437  27.354  1.00  0.00     0.270 C 
ATOM     21  H   UNL     1     -46.191  37.723  27.840  1.00  0.00     0.164 HD
BRANCH  20  22
ATOM     22  C   UNL     1     -45.806  40.076  27.308  1.00  0.00     0.136 A 
ATOM     23  C   UNL     1     -45.509  40.763  26.202  1.00  0.00     0.035 A 
ATOM     24  N   UNL     1     -44.959  39.911  28.381  1.00  0.00    -0.225 NA
ATOM     25  C   UNL     1     -44.187  41.396  26.111  1.00  0.00     0.258 A 
ATOM     26  H   UNL     1     -46.183  40.884  25.364  1.00  0.00     0.071 H 
ATOM     27  C   UNL     1     -43.791  40.469  28.294  1.00  0.00     0.140 A 
ATOM     28  O   UNL     1     -43.907  42.034  25.097  1.00  0.00    -0.269 OA
ATOM     29  N   UNL     1     -43.353  41.212  27.203  1.00  0.00    -0.268 N 
ATOM     30  C   UNL     1     -42.839  40.314  29.431  1.00  0.00    -0.019 A 
ATOM     31  C   UNL     1     -42.083  41.779  27.188  1.00  0.00     0.014 A 
ATOM     32  C   UNL     1     -41.628  40.878  29.371  1.00  0.00    -0.057 A 
ATOM     33  H   UNL     1     -43.170  39.735  30.284  1.00  0.00     0.066 H 
ATOM     34  C   UNL     1     -41.234  41.636  28.213  1.00  0.00    -0.045 A 
ATOM     35  H   UNL     1     -41.807  42.348  26.303  1.00  0.00     0.082 H 
ATOM     36  H   UNL     1     -40.920  40.776  30.188  1.00  0.00     0.062 H 
ATOM     37  H   UNL     1     -40.245  42.083  28.190  1.00  0.00     0.064 H 
ENDBRANCH  20  22
ENDBRANCH  15  18
ENDBRANCH   1  15
BRANCH   6  38
ATOM     38  C   UNL     1     -49.043  30.353  24.941  1.00  0.00     0.036 C 
ATOM     39  H   UNL     1     -50.088  30.303  25.272  1.00  0.00     0.049 H 
ATOM     40  H   UNL     1     -49.035  30.273  23.847  1.00  0.00     0.049 H 
BRANCH  38  41
ATOM     41  N   UNL     1     -48.249  29.278  25.535  1.00  0.00    -0.308 NA
ATOM     42  H   UNL     1     -47.272  29.572  25.507  1.00  0.00     0.123 HD
BRANCH  41  43
ATOM     43  C   UNL     1     -48.495  28.024  24.807  1.00  0.00     0.007 C 
ATOM     44  C   UNL     1     -47.403  26.993  25.172  1.00  0.00    -0.038 C 
ATOM     45  C   UNL     1     -47.832  28.134  23.413  1.00  0.00    -0.038 C 
ATOM     46  H   UNL     1     -49.531  27.671  24.800  1.00  0.00     0.046 H 
ATOM     47  C   UNL     1     -46.540  27.554  24.023  1.00  0.00    -0.050 C 
ATOM     48  H   UNL     1     -46.956  27.051  26.169  1.00  0.00     0.028 H 
ATOM     49  H   UNL     1     -47.721  25.956  25.001  1.00  0.00     0.028 H 
ATOM     50  H   UNL     1     -47.744  29.130  22.971  1.00  0.00     0.028 H 
ATOM     51  H   UNL     1     -48.288  27.470  22.669  1.00  0.00     0.028 H 
ATOM     52  H   UNL     1     -45.819  28.315  24.341  1.00  0.00     0.027 H 
ATOM     53  H   UNL     1     -46.022  26.809  23.414  1.00  0.00     0.027 H 
ENDBRANCH  41  43
ENDBRANCH  38  41
ENDBRANCH   6  38
TORSDOF 6
ENDMDL
MODEL 4
REMARK VINA RESULT:      -9.8      2.244      3.395
REMARK SMILES O=C(NCc1ccc2cc(CNC3CCC3)[nH]c2c1)c1cc(=O)n2ccccc2n1
REMARK SMILES IDX 5 1 6 2 7 3 8 4 9 5 10 6 17 7 18 8 19 9 4 15 3 18 1 19 2 20
REMARK SMILES IDX 20 22 21 23 30 24 22 25 29 27 23 28 24 29 28 30 25 31 27 32
REMARK SMILES IDX 26 34 11 38 12 41 13 43 14 44 16 45 15 47
REMARK H PARENT 6 10 7 11 9 12 17 13 19 14 4 16 4 17 3 21 21 26 28 33 25 35
REMARK H PARENT 27 36 26 37 11 39 11 40 12 42 13 46 14 48 14 49 16 50 16 51
REMARK H PARENT 15 52 15 53
REMARK Flexibility Score: inf
ROOT
ATOM      1  C   UNL     1     -47.847  34.825  26.687  1.00  0.00    -0.027 A 
ATOM      2  C   UNL     1     -46.566  34.701  26.135  1.00  0.00    -0.057 A 
ATOM      3  C   UNL     1     -46.241  33.626  25.295  1.00  0.00    -0.052 A 
ATOM      4  C   UNL     1     -47.222  32.662  24.997  1.00  0.00    -0.000 A 
ATOM      5  C   UNL     1     -47.240  31.478  24.208  1.00  0.00    -0.032 A 
ATOM      6  C   UNL     1     -48.504  30.931  24.286  1.00  0.00     0.030 A 
ATOM      7  N   UNL     1     -49.252  31.754  25.097  1.00  0.00    -0.357 N 
ATOM      8  C   UNL     1     -48.494  32.809  25.545  1.00  0.00     0.046 A 
ATOM      9  C   UNL     1     -48.837  33.873  26.388  1.00  0.00    -0.033 A 
ATOM     10  H   UNL     1     -45.801  35.442  26.354  1.00  0.00     0.063 H 
ATOM     11  H   UNL     1     -45.242  33.540  24.879  1.00  0.00     0.063 H 
ATOM     12  H   UNL     1     -46.411  31.074  23.641  1.00  0.00     0.065 H 
ATOM     13  H   UNL     1     -50.215  31.577  25.349  1.00  0.00     0.166 HD
ATOM     14  H   UNL     1     -49.841  33.965  26.795  1.00  0.00     0.065 H 
ENDROOT
BRANCH   1  15
ATOM     15  C   UNL     1     -48.188  36.000  27.572  1.00  0.00     0.043 C 
ATOM     16  H   UNL     1     -48.285  35.678  28.614  1.00  0.00     0.054 H 
ATOM     17  H   UNL     1     -49.149  36.433  27.274  1.00  0.00     0.054 H 
BRANCH  15  18
ATOM     18  N   UNL     1     -47.146  36.994  27.526  1.00  0.00    -0.347 N 
ATOM     19  O   UNL     1     -46.306  36.615  29.634  1.00  0.00    -0.268 OA
ATOM     20  C   UNL     1     -46.334  37.270  28.599  1.00  0.00     0.270 C 
ATOM     21  H   UNL     1     -47.153  37.686  26.784  1.00  0.00     0.164 HD
BRANCH  20  22
ATOM     22  C   UNL     1     -45.478  38.492  28.369  1.00  0.00     0.136 A 
ATOM     23  C   UNL     1     -45.788  39.242  27.309  1.00  0.00     0.035 A 
ATOM     24  N   UNL     1     -44.444  38.752  29.241  1.00  0.00    -0.225 NA
ATOM     25  C   UNL     1     -44.977  40.437  27.042  1.00  0.00     0.258 A 
ATOM     26  H   UNL     1     -46.601  39.025  26.629  1.00  0.00     0.071 H 
ATOM     27  C   UNL     1     -43.729  39.807  28.999  1.00  0.00     0.140 A 
ATOM     28  O   UNL     1     -45.257  41.136  26.070  1.00  0.00    -0.269 OA
ATOM     29  N   UNL     1     -43.940  40.675  27.933  1.00  0.00    -0.268 N 
ATOM     30  C   UNL     1     -42.596  40.126  29.915  1.00  0.00    -0.019 A 
ATOM     31  C   UNL     1     -43.126  41.787  27.743  1.00  0.00     0.014 A 
ATOM     32  C   UNL     1     -41.841  41.208  29.691  1.00  0.00    -0.057 A 
ATOM     33  H   UNL     1     -42.421  39.456  30.746  1.00  0.00     0.066 H 
ATOM     34  C   UNL     1     -42.112  42.068  28.570  1.00  0.00    -0.045 A 
ATOM     35  H   UNL     1     -43.350  42.422  26.890  1.00  0.00     0.082 H 
ATOM     36  H   UNL     1     -41.011  41.457  30.346  1.00  0.00     0.062 H 
ATOM     37  H   UNL     1     -41.484  42.938  28.412  1.00  0.00     0.064 H 
ENDBRANCH  20  22
ENDBRANCH  15  18
ENDBRANCH   1  15
BRANCH   6  38
ATOM     38  C   UNL     1     -49.091  29.715  23.661  1.00  0.00     0.036 C 
ATOM     39  H   UNL     1     -48.297  28.971  23.527  1.00  0.00     0.049 H 
ATOM     40  H   UNL     1     -49.846  29.283  24.330  1.00  0.00     0.049 H 
BRANCH  38  41
ATOM     41  N   UNL     1     -49.697  30.077  22.379  1.00  0.00    -0.308 NA
ATOM     42  H   UNL     1     -50.641  29.688  22.370  1.00  0.00     0.123 HD
BRANCH  41  43
ATOM     43  C   UNL     1     -48.857  29.578  21.280  1.00  0.00     0.007 C 
ATOM     44  C   UNL     1     -48.059  30.753  20.667  1.00  0.00    -0.038 C 
ATOM     45  C   UNL     1     -49.706  29.567  19.987  1.00  0.00    -0.038 C 
ATOM     46  H   UNL     1     -48.306  28.654  21.481  1.00  0.00     0.046 H 
ATOM     47  C   UNL     1     -49.245  31.012  19.714  1.00  0.00    -0.050 C 
ATOM     48  H   UNL     1     -47.789  31.586  21.322  1.00  0.00     0.028 H 
ATOM     49  H   UNL     1     -47.153  30.425  20.142  1.00  0.00     0.028 H 
ATOM     50  H   UNL     1     -50.785  29.422  20.090  1.00  0.00     0.028 H 
ATOM     51  H   UNL     1     -49.337  28.853  19.240  1.00  0.00     0.028 H 
ATOM     52  H   UNL     1     -49.943  31.776  20.074  1.00  0.00     0.027 H 
ATOM     53  H   UNL     1     -48.978  31.237  18.679  1.00  0.00     0.027 H 
ENDBRANCH  41  43
ENDBRANCH  38  41
ENDBRANCH   6  38
TORSDOF 6
ENDMDL
MODEL 5
REMARK VINA RESULT:      -9.7      2.288      3.899
REMARK SMILES O=C(NCc1ccc2cc(CNC3CCC3)[nH]c2c1)c1cc(=O)n2ccccc2n1
REMARK SMILES IDX 5 1 6 2 7 3 8 4 9 5 10 6 17 7 18 8 19 9 4 15 3 18 1 19 2 20
REMARK SMILES IDX 20 22 21 23 30 24 22 25 29 27 23 28 24 29 28 30 25 31 27 32
REMARK SMILES IDX 26 34 11 38 12 41 13 43 14 44 16 45 15 47
REMARK H PARENT 6 10 7 11 9 12 17 13 19 14 4 16 4 17 3 21 21 26 28 33 25 35
REMARK H PARENT 27 36 26 37 11 39 11 40 12 42 13 46 14 48 14 49 16 50 16 51
REMARK H PARENT 15 52 15 53
REMARK Flexibility Score: inf
ROOT
ATOM      1  C   UNL     1     -46.547  36.752  28.643  1.00  0.00    -0.027 A 
ATOM      2  C   UNL     1     -47.911  36.742  28.327  1.00  0.00    -0.057 A 
ATOM      3  C   UNL     1     -48.427  35.854  27.373  1.00  0.00    -0.052 A 
ATOM      4  C   UNL     1     -47.559  34.951  26.730  1.00  0.00    -0.000 A 
ATOM      5  C   UNL     1     -47.734  33.943  25.741  1.00  0.00    -0.032 A 
ATOM      6  C   UNL     1     -46.504  33.368  25.495  1.00  0.00     0.030 A 
ATOM      7  N   UNL     1     -45.592  33.998  26.311  1.00  0.00    -0.357 N 
ATOM      8  C   UNL     1     -46.208  34.967  27.066  1.00  0.00     0.046 A 
ATOM      9  C   UNL     1     -45.673  35.848  28.014  1.00  0.00    -0.033 A 
ATOM     10  H   UNL     1     -48.593  37.431  28.820  1.00  0.00     0.063 H 
ATOM     11  H   UNL     1     -49.486  35.862  27.135  1.00  0.00     0.063 H 
ATOM     12  H   UNL     1     -48.665  33.669  25.264  1.00  0.00     0.065 H 
ATOM     13  H   UNL     1     -44.602  33.792  26.318  1.00  0.00     0.166 HD
ATOM     14  H   UNL     1     -44.615  35.832  28.261  1.00  0.00     0.065 H 
ENDROOT
BRANCH   1  15
ATOM     15  C   UNL     1     -46.011  37.700  29.689  1.00  0.00     0.043 C 
ATOM     16  H   UNL     1     -45.341  37.171  30.377  1.00  0.00     0.054 H 
ATOM     17  H   UNL     1     -46.833  38.110  30.285  1.00  0.00     0.054 H 
BRANCH  15  18
ATOM     18  N   UNL     1     -45.249  38.758  29.077  1.00  0.00    -0.347 N 
ATOM     19  O   UNL     1     -46.983  39.704  27.896  1.00  0.00    -0.268 OA
ATOM     20  C   UNL     1     -45.790  39.633  28.167  1.00  0.00     0.270 C 
ATOM     21  H   UNL     1     -44.235  38.726  29.115  1.00  0.00     0.164 HD
BRANCH  20  22
ATOM     22  C   UNL     1     -44.742  40.502  27.515  1.00  0.00     0.136 A 
ATOM     23  C   UNL     1     -43.582  40.620  28.166  1.00  0.00     0.035 A 
ATOM     24  N   UNL     1     -45.037  41.116  26.319  1.00  0.00    -0.225 NA
ATOM     25  C   UNL     1     -42.535  41.461  27.573  1.00  0.00     0.258 A 
ATOM     26  H   UNL     1     -43.362  40.135  29.108  1.00  0.00     0.071 H 
ATOM     27  C   UNL     1     -44.110  41.861  25.801  1.00  0.00     0.140 A 
ATOM     28  O   UNL     1     -41.461  41.573  28.163  1.00  0.00    -0.269 OA
ATOM     29  N   UNL     1     -42.859  42.071  26.370  1.00  0.00    -0.268 N 
ATOM     30  C   UNL     1     -44.387  42.548  24.507  1.00  0.00    -0.019 A 
ATOM     31  C   UNL     1     -41.918  42.886  25.748  1.00  0.00     0.014 A 
ATOM     32  C   UNL     1     -43.450  43.323  23.948  1.00  0.00    -0.057 A 
ATOM     33  H   UNL     1     -45.359  42.393  24.057  1.00  0.00     0.066 H 
ATOM     34  C   UNL     1     -42.173  43.499  24.587  1.00  0.00    -0.045 A 
ATOM     35  H   UNL     1     -40.960  43.004  26.250  1.00  0.00     0.082 H 
ATOM     36  H   UNL     1     -43.632  43.832  23.007  1.00  0.00     0.062 H 
ATOM     37  H   UNL     1     -41.431  44.133  24.111  1.00  0.00     0.064 H 
ENDBRANCH  20  22
ENDBRANCH  15  18
ENDBRANCH   1  15
BRANCH   6  38
ATOM     38  C   UNL     1     -46.096  32.269  24.578  1.00  0.00     0.036 C 
ATOM     39  H   UNL     1     -46.096  32.652  23.550  1.00  0.00     0.049 H 
ATOM     40  H   UNL     1     -45.074  31.949  24.816  1.00  0.00     0.049 H 
BRANCH  38  41
ATOM     41  N   UNL     1     -47.027  31.150  24.724  1.00  0.00    -0.308 NA
ATOM     42  H   UNL     1     -46.566  30.448  25.304  1.00  0.00     0.123 HD
BRANCH  41  43
ATOM     43  C   UNL     1     -47.400  30.645  23.395  1.00  0.00     0.007 C 
ATOM     44  C   UNL     1     -48.093  29.270  23.542  1.00  0.00    -0.038 C 
ATOM     45  C   UNL     1     -46.185  29.894  22.801  1.00  0.00    -0.038 C 
ATOM     46  H   UNL     1     -47.871  31.369  22.723  1.00  0.00     0.046 H 
ATOM     47  C   UNL     1     -46.704  28.603  23.464  1.00  0.00    -0.050 C 
ATOM     48  H   UNL     1     -48.659  29.076  24.458  1.00  0.00     0.028 H 
ATOM     49  H   UNL     1     -48.735  29.022  22.687  1.00  0.00     0.028 H 
ATOM     50  H   UNL     1     -45.188  30.221  23.109  1.00  0.00     0.028 H 
ATOM     51  H   UNL     1     -46.204  29.849  21.705  1.00  0.00     0.028 H 
ATOM     52  H   UNL     1     -46.257  28.395  24.442  1.00  0.00     0.027 H 
ATOM     53  H   UNL     1     -46.647  27.700  22.851  1.00  0.00     0.027 H 
ENDBRANCH  41  43
ENDBRANCH  38  41
ENDBRANCH   6  38
TORSDOF 6
ENDMDL
MODEL 6
REMARK VINA RESULT:      -9.6      2.008      3.192
REMARK SMILES O=C(NCc1ccc2cc(CNC3CCC3)[nH]c2c1)c1cc(=O)n2ccccc2n1
REMARK SMILES IDX 5 1 6 2 7 3 8 4 9 5 10 6 17 7 18 8 19 9 4 15 3 18 1 19 2 20
REMARK SMILES IDX 20 22 21 23 30 24 22 25 29 27 23 28 24 29 28 30 25 31 27 32
REMARK SMILES IDX 26 34 11 38 12 41 13 43 14 44 16 45 15 47
REMARK H PARENT 6 10 7 11 9 12 17 13 19 14 4 16 4 17 3 21 21 26 28 33 25 35
REMARK H PARENT 27 36 26 37 11 39 11 40 12 42 13 46 14 48 14 49 16 50 16 51
REMARK H PARENT 15 52 15 53
REMARK Flexibility Score: inf
ROOT
ATOM      1  C   UNL     1     -46.387  35.219  27.561  1.00  0.00    -0.027 A 
ATOM      2  C   UNL     1     -47.786  35.211  27.504  1.00  0.00    -0.057 A 
ATOM      3  C   UNL     1     -48.471  34.351  26.635  1.00  0.00    -0.052 A 
ATOM      4  C   UNL     1     -47.739  33.475  25.812  1.00  0.00    -0.000 A 
ATOM      5  C   UNL     1     -48.096  32.498  24.841  1.00  0.00    -0.032 A 
ATOM      6  C   UNL     1     -46.934  31.938  24.351  1.00  0.00     0.030 A 
ATOM      7  N   UNL     1     -45.885  32.547  25.002  1.00  0.00    -0.357 N 
ATOM      8  C   UNL     1     -46.349  33.488  25.890  1.00  0.00     0.046 A 
ATOM      9  C   UNL     1     -45.647  34.341  26.750  1.00  0.00    -0.033 A 
ATOM     10  H   UNL     1     -48.363  35.880  28.138  1.00  0.00     0.063 H 
ATOM     11  H   UNL     1     -49.556  34.361  26.598  1.00  0.00     0.063 H 
ATOM     12  H   UNL     1     -49.100  32.234  24.537  1.00  0.00     0.065 H 
ATOM     13  H   UNL     1     -44.911  32.346  24.818  1.00  0.00     0.166 HD
ATOM     14  H   UNL     1     -44.561  34.323  26.794  1.00  0.00     0.065 H 
ENDROOT
BRANCH   1  15
ATOM     15  C   UNL     1     -45.665  36.136  28.518  1.00  0.00     0.043 C 
ATOM     16  H   UNL     1     -44.713  35.691  28.828  1.00  0.00     0.054 H 
ATOM     17  H   UNL     1     -46.264  36.286  29.422  1.00  0.00     0.054 H 
BRANCH  15  18
ATOM     18  N   UNL     1     -45.364  37.397  27.890  1.00  0.00    -0.347 N 
ATOM     19  O   UNL     1     -44.547  38.453  29.765  1.00  0.00    -0.268 OA
ATOM     20  C   UNL     1     -44.896  38.482  28.590  1.00  0.00     0.270 C 
ATOM     21  H   UNL     1     -45.729  37.590  26.963  1.00  0.00     0.164 HD
BRANCH  20  22
ATOM     22  C   UNL     1     -44.869  39.737  27.750  1.00  0.00     0.136 A 
ATOM     23  C   UNL     1     -46.035  40.126  27.230  1.00  0.00     0.035 A 
ATOM     24  N   UNL     1     -43.670  40.387  27.567  1.00  0.00    -0.225 NA
ATOM     25  C   UNL     1     -46.055  41.337  26.399  1.00  0.00     0.258 A 
ATOM     26  H   UNL     1     -46.971  39.604  27.379  1.00  0.00     0.071 H 
ATOM     27  C   UNL     1     -43.692  41.455  26.830  1.00  0.00     0.140 A 
ATOM     28  O   UNL     1     -47.125  41.706  25.918  1.00  0.00    -0.269 OA
ATOM     29  N   UNL     1     -44.834  41.972  26.227  1.00  0.00    -0.268 N 
ATOM     30  C   UNL     1     -42.416  42.191  26.601  1.00  0.00    -0.019 A 
ATOM     31  C   UNL     1     -44.773  43.125  25.451  1.00  0.00     0.014 A 
ATOM     32  C   UNL     1     -42.407  43.295  25.846  1.00  0.00    -0.057 A 
ATOM     33  H   UNL     1     -41.521  41.795  27.063  1.00  0.00     0.066 H 
ATOM     34  C   UNL     1     -43.624  43.781  25.250  1.00  0.00    -0.045 A 
ATOM     35  H   UNL     1     -45.705  43.473  25.011  1.00  0.00     0.082 H 
ATOM     36  H   UNL     1     -41.489  43.845  25.666  1.00  0.00     0.062 H 
ATOM     37  H   UNL     1     -43.589  44.679  24.642  1.00  0.00     0.064 H 
ENDBRANCH  20  22
ENDBRANCH  15  18
ENDBRANCH   1  15
BRANCH   6  38
ATOM     38  C   UNL     1     -46.704  30.872  23.338  1.00  0.00     0.036 C 
ATOM     39  H   UNL     1     -47.630  30.725  22.768  1.00  0.00     0.049 H 
ATOM     40  H   UNL     1     -45.924  31.190  22.636  1.00  0.00     0.049 H 
BRANCH  38  41
ATOM     41  N   UNL     1     -46.304  29.640  24.018  1.00  0.00    -0.308 NA
ATOM     42  H   UNL     1     -45.283  29.610  24.012  1.00  0.00     0.123 HD
BRANCH  41  43
ATOM     43  C   UNL     1     -46.919  28.486  23.348  1.00  0.00     0.007 C 
ATOM     44  C   UNL     1     -48.423  28.423  23.705  1.00  0.00    -0.038 C 
ATOM     45  C   UNL     1     -46.723  27.241  24.246  1.00  0.00    -0.038 C 
ATOM     46  H   UNL     1     -46.652  28.345  22.296  1.00  0.00     0.046 H 
ATOM     47  C   UNL     1     -48.057  27.577  24.942  1.00  0.00    -0.050 C 
ATOM     48  H   UNL     1     -48.940  29.365  23.913  1.00  0.00     0.028 H 
ATOM     49  H   UNL     1     -49.014  27.867  22.967  1.00  0.00     0.028 H 
ATOM     50  H   UNL     1     -45.841  27.216  24.892  1.00  0.00     0.028 H 
ATOM     51  H   UNL     1     -46.760  26.299  23.684  1.00  0.00     0.028 H 
ATOM     52  H   UNL     1     -47.942  28.163  25.861  1.00  0.00     0.027 H 
ATOM     53  H   UNL     1     -48.713  26.727  25.145  1.00  0.00     0.027 H 
ENDBRANCH  41  43
ENDBRANCH  38  41
ENDBRANCH   6  38
TORSDOF 6
ENDMDL
MODEL 7
REMARK VINA RESULT:      -9.5      3.022     11.083
REMARK SMILES O=C(NCc1ccc2cc(CNC3CCC3)[nH]c2c1)c1cc(=O)n2ccccc2n1
REMARK SMILES IDX 5 1 6 2 7 3 8 4 9 5 10 6 17 7 18 8 19 9 4 15 3 18 1 19 2 20
REMARK SMILES IDX 20 22 21 23 30 24 22 25 29 27 23 28 24 29 28 30 25 31 27 32
REMARK SMILES IDX 26 34 11 38 12 41 13 43 14 44 16 45 15 47
REMARK H PARENT 6 10 7 11 9 12 17 13 19 14 4 16 4 17 3 21 21 26 28 33 25 35
REMARK H PARENT 27 36 26 37 11 39 11 40 12 42 13 46 14 48 14 49 16 50 16 51
REMARK H PARENT 15 52 15 53
REMARK Flexibility Score: inf
ROOT
ATOM      1  C   UNL     1     -46.858  33.498  25.381  1.00  0.00    -0.027 A 
ATOM      2  C   UNL     1     -48.207  33.632  25.731  1.00  0.00    -0.057 A 
ATOM      3  C   UNL     1     -48.606  34.499  26.758  1.00  0.00    -0.052 A 
ATOM      4  C   UNL     1     -47.633  35.253  27.441  1.00  0.00    -0.000 A 
ATOM      5  C   UNL     1     -47.679  36.200  28.502  1.00  0.00    -0.032 A 
ATOM      6  C   UNL     1     -46.390  36.619  28.757  1.00  0.00     0.030 A 
ATOM      7  N   UNL     1     -45.566  35.954  27.877  1.00  0.00    -0.357 N 
ATOM      8  C   UNL     1     -46.297  35.115  27.071  1.00  0.00     0.046 A 
ATOM      9  C   UNL     1     -45.880  34.253  26.050  1.00  0.00    -0.033 A 
ATOM     10  H   UNL     1     -48.968  33.059  25.207  1.00  0.00     0.063 H 
ATOM     11  H   UNL     1     -49.655  34.589  27.021  1.00  0.00     0.063 H 
ATOM     12  H   UNL     1     -48.567  36.538  29.020  1.00  0.00     0.065 H 
ATOM     13  H   UNL     1     -44.560  36.053  27.859  1.00  0.00     0.166 HD
ATOM     14  H   UNL     1     -44.830  34.173  25.779  1.00  0.00     0.065 H 
ENDROOT
BRANCH   1  15
ATOM     15  C   UNL     1     -46.447  32.576  24.258  1.00  0.00     0.043 C 
ATOM     16  H   UNL     1     -45.355  32.543  24.171  1.00  0.00     0.054 H 
ATOM     17  H   UNL     1     -46.839  32.943  23.304  1.00  0.00     0.054 H 
BRANCH  15  18
ATOM     18  N   UNL     1     -46.897  31.230  24.510  1.00  0.00    -0.347 N 
ATOM     19  O   UNL     1     -47.794  30.842  22.426  1.00  0.00    -0.268 OA
ATOM     20  C   UNL     1     -47.604  30.499  23.587  1.00  0.00     0.270 C 
ATOM     21  H   UNL     1     -46.920  30.885  25.464  1.00  0.00     0.164 HD
BRANCH  20  22
ATOM     22  C   UNL     1     -48.144  29.214  24.168  1.00  0.00     0.136 A 
ATOM     23  C   UNL     1     -49.472  29.081  24.179  1.00  0.00     0.035 A 
ATOM     24  N   UNL     1     -47.256  28.278  24.648  1.00  0.00    -0.225 NA
ATOM     25  C   UNL     1     -50.042  27.850  24.742  1.00  0.00     0.258 A 
ATOM     26  H   UNL     1     -50.160  29.825  23.801  1.00  0.00     0.071 H 
ATOM     27  C   UNL     1     -47.765  27.194  25.147  1.00  0.00     0.140 A 
ATOM     28  O   UNL     1     -51.265  27.716  24.753  1.00  0.00    -0.269 OA
ATOM     29  N   UNL     1     -49.127  26.925  25.222  1.00  0.00    -0.268 N 
ATOM     30  C   UNL     1     -46.841  26.153  25.683  1.00  0.00    -0.019 A 
ATOM     31  C   UNL     1     -49.592  25.734  25.772  1.00  0.00     0.014 A 
ATOM     32  C   UNL     1     -47.336  25.024  26.203  1.00  0.00    -0.057 A 
ATOM     33  H   UNL     1     -45.779  26.353  25.632  1.00  0.00     0.066 H 
ATOM     34  C   UNL     1     -48.757  24.805  26.250  1.00  0.00    -0.045 A 
ATOM     35  H   UNL     1     -50.670  25.591  25.797  1.00  0.00     0.082 H 
ATOM     36  H   UNL     1     -46.680  24.254  26.598  1.00  0.00     0.062 H 
ATOM     37  H   UNL     1     -49.131  23.880  26.677  1.00  0.00     0.064 H 
ENDBRANCH  20  22
ENDBRANCH  15  18
ENDBRANCH   1  15
BRANCH   6  38
ATOM     38  C   UNL     1     -45.848  37.597  29.739  1.00  0.00     0.036 C 
ATOM     39  H   UNL     1     -46.484  37.586  30.633  1.00  0.00     0.049 H 
ATOM     40  H   UNL     1     -44.838  37.296  30.043  1.00  0.00     0.049 H 
BRANCH  38  41
ATOM     41  N   UNL     1     -45.820  38.927  29.129  1.00  0.00    -0.308 NA
ATOM     42  H   UNL     1     -46.780  39.164  28.877  1.00  0.00     0.123 HD
BRANCH  41  43
ATOM     43  C   UNL     1     -44.907  38.919  27.977  1.00  0.00     0.007 C 
ATOM     44  C   UNL     1     -44.167  40.275  27.896  1.00  0.00    -0.038 C 
ATOM     45  C   UNL     1     -45.703  39.355  26.723  1.00  0.00    -0.038 C 
ATOM     46  H   UNL     1     -44.303  38.015  27.851  1.00  0.00     0.046 H 
ATOM     47  C   UNL     1     -45.330  40.817  27.039  1.00  0.00    -0.050 C 
ATOM     48  H   UNL     1     -43.979  40.812  28.830  1.00  0.00     0.028 H 
ATOM     49  H   UNL     1     -43.221  40.213  27.343  1.00  0.00     0.028 H 
ATOM     50  H   UNL     1     -46.773  39.130  26.699  1.00  0.00     0.028 H 
ATOM     51  H   UNL     1     -45.258  38.994  25.788  1.00  0.00     0.028 H 
ATOM     52  H   UNL     1     -46.091  41.355  27.615  1.00  0.00     0.027 H 
ATOM     53  H   UNL     1     -45.040  41.428  26.181  1.00  0.00     0.027 H 
ENDBRANCH  41  43
ENDBRANCH  38  41
ENDBRANCH   6  38
TORSDOF 6
ENDMDL
