MODEL 1
REMARK VINA RESULT:     -11.2      0.000      0.000
REMARK SMILES Nc1ncnc2c1c(C1CCCC1)cn2-c1cncc(COc2ccc3ccc(N4CCC4)nc3c2)c1
REMARK SMILES IDX 21 1 20 4 16 5 17 6 37 7 18 8 19 11 15 13 2 14 3 15 7 16
REMARK SMILES IDX 4 17 6 18 8 19 5 20 14 22 1 24 9 27 10 28 13 29 11 31 12 34
REMARK SMILES IDX 22 41 23 42 24 43 36 44 25 45 35 47 26 49 34 51 27 52 29 53
REMARK SMILES IDX 28 54 30 57 31 58 33 59 32 60
REMARK H PARENT 21 2 21 3 17 9 37 10 19 12 4 21 14 23 1 25 1 26 9 30 10 32
REMARK H PARENT 10 33 13 35 13 36 11 37 11 38 12 39 12 40 24 46 36 48 25 50
REMARK H PARENT 27 55 28 56 31 61 31 62 33 63 33 64 32 65 32 66
REMARK Flexibility Score: inf
ROOT
ATOM      1  C   UNL     1     -46.551  36.637  26.843  1.00  0.00     0.115 C 
ATOM      2  H   UNL     1     -45.595  36.895  26.371  1.00  0.00     0.076 H 
ATOM      3  H   UNL     1     -47.380  37.040  26.249  1.00  0.00     0.076 H 
ENDROOT
BRANCH   1   4
ATOM      4  C   UNL     1     -46.654  35.135  26.902  1.00  0.00     0.010 A 
ATOM      5  C   UNL     1     -47.292  33.007  25.908  1.00  0.00     0.066 A 
ATOM      6  C   UNL     1     -46.734  32.402  27.031  1.00  0.00     0.051 A 
ATOM      7  C   UNL     1     -47.238  34.405  25.856  1.00  0.00    -0.028 A 
ATOM      8  N   UNL     1     -46.151  33.073  28.055  1.00  0.00    -0.262 NA
ATOM      9  H   UNL     1     -46.699  31.328  27.172  1.00  0.00     0.086 H 
ATOM     10  H   UNL     1     -47.661  34.961  25.026  1.00  0.00     0.065 H 
ATOM     11  C   UNL     1     -46.125  34.421  27.967  1.00  0.00     0.034 A 
ATOM     12  H   UNL     1     -45.651  34.924  28.806  1.00  0.00     0.084 H 
BRANCH   5  13
ATOM     13  N   UNL     1     -47.888  32.222  24.869  1.00  0.00    -0.299 N 
ATOM     14  C   UNL     1     -47.749  30.111  21.987  1.00  0.00     0.136 A 
ATOM     15  N   UNL     1     -46.425  29.958  21.809  1.00  0.00    -0.219 NA
ATOM     16  C   UNL     1     -48.217  30.889  23.062  1.00  0.00     0.065 A 
ATOM     17  C   UNL     1     -45.597  30.561  22.673  1.00  0.00     0.120 A 
ATOM     18  C   UNL     1     -47.249  31.483  23.874  1.00  0.00     0.150 A 
ATOM     19  C   UNL     1     -49.501  31.248  23.588  1.00  0.00    -0.013 A 
ATOM     20  N   UNL     1     -45.917  31.335  23.715  1.00  0.00    -0.218 NA
ATOM     21  H   UNL     1     -44.536  30.402  22.502  1.00  0.00     0.106 H 
ATOM     22  C   UNL     1     -49.252  32.063  24.676  1.00  0.00     0.015 A 
ATOM     23  H   UNL     1     -49.967  32.556  25.319  1.00  0.00     0.083 H 
BRANCH  14  24
ATOM     24  N   UNL     1     -48.564  29.485  21.052  1.00  0.00    -0.383 N 
ATOM     25  H   UNL     1     -49.254  30.091  20.633  1.00  0.00     0.158 HD
ATOM     26  H   UNL     1     -47.990  28.967  20.396  1.00  0.00     0.158 HD
ENDBRANCH  14  24
BRANCH  19  27
ATOM     27  C   UNL     1     -50.845  30.816  23.053  1.00  0.00    -0.014 C 
ATOM     28  C   UNL     1     -52.056  31.432  23.763  1.00  0.00    -0.046 C 
ATOM     29  C   UNL     1     -51.062  31.241  21.598  1.00  0.00    -0.046 C 
ATOM     30  H   UNL     1     -50.910  29.726  23.145  1.00  0.00     0.035 H 
ATOM     31  C   UNL     1     -52.422  32.695  22.981  1.00  0.00    -0.053 C 
ATOM     32  H   UNL     1     -52.901  30.733  23.705  1.00  0.00     0.027 H 
ATOM     33  H   UNL     1     -51.891  31.639  24.826  1.00  0.00     0.027 H 
ATOM     34  C   UNL     1     -51.603  32.660  21.693  1.00  0.00    -0.053 C 
ATOM     35  H   UNL     1     -50.157  31.192  20.983  1.00  0.00     0.027 H 
ATOM     36  H   UNL     1     -51.819  30.595  21.135  1.00  0.00     0.027 H 
ATOM     37  H   UNL     1     -53.496  32.709  22.763  1.00  0.00     0.027 H 
ATOM     38  H   UNL     1     -52.197  33.600  23.555  1.00  0.00     0.027 H 
ATOM     39  H   UNL     1     -50.777  33.377  21.759  1.00  0.00     0.027 H 
ATOM     40  H   UNL     1     -52.202  32.930  20.819  1.00  0.00     0.027 H 
ENDBRANCH  19  27
ENDBRANCH   5  13
ENDBRANCH   1   4
BRANCH   1  41
ATOM     41  O   UNL     1     -46.618  37.167  28.167  1.00  0.00    -0.489 OA
BRANCH  41  42
ATOM     42  C   UNL     1     -45.609  38.002  28.559  1.00  0.00     0.122 A 
ATOM     43  C   UNL     1     -44.883  37.912  29.743  1.00  0.00    -0.019 A 
ATOM     44  C   UNL     1     -45.316  39.028  27.652  1.00  0.00     0.007 A 
ATOM     45  C   UNL     1     -43.877  38.842  30.010  1.00  0.00    -0.049 A 
ATOM     46  H   UNL     1     -45.070  37.136  30.478  1.00  0.00     0.066 H 
ATOM     47  C   UNL     1     -44.321  39.966  27.892  1.00  0.00     0.076 A 
ATOM     48  H   UNL     1     -45.880  39.097  26.725  1.00  0.00     0.069 H 
ATOM     49  C   UNL     1     -43.594  39.867  29.092  1.00  0.00     0.001 A 
ATOM     50  H   UNL     1     -43.315  38.763  30.938  1.00  0.00     0.063 H 
ATOM     51  N   UNL     1     -44.084  40.930  26.984  1.00  0.00    -0.231 NA
ATOM     52  C   UNL     1     -42.593  40.813  29.327  1.00  0.00    -0.049 A 
ATOM     53  C   UNL     1     -43.119  41.846  27.223  1.00  0.00     0.129 A 
ATOM     54  C   UNL     1     -42.354  41.807  28.384  1.00  0.00    -0.019 A 
ATOM     55  H   UNL     1     -41.994  40.781  30.234  1.00  0.00     0.063 H 
ATOM     56  H   UNL     1     -41.569  42.535  28.553  1.00  0.00     0.066 H 
BRANCH  53  57
ATOM     57  N   UNL     1     -42.877  42.840  26.255  1.00  0.00    -0.356 N 
ATOM     58  C   UNL     1     -41.606  43.055  25.622  1.00  0.00     0.021 C 
ATOM     59  C   UNL     1     -43.595  43.025  25.028  1.00  0.00     0.021 C 
ATOM     60  C   UNL     1     -42.377  43.818  24.539  1.00  0.00    -0.018 C 
ATOM     61  H   UNL     1     -40.915  43.649  26.223  1.00  0.00     0.049 H 
ATOM     62  H   UNL     1     -41.131  42.128  25.283  1.00  0.00     0.049 H 
ATOM     63  H   UNL     1     -43.782  42.088  24.495  1.00  0.00     0.049 H 
ATOM     64  H   UNL     1     -44.518  43.599  25.142  1.00  0.00     0.049 H 
ATOM     65  H   UNL     1     -42.067  43.627  23.510  1.00  0.00     0.030 H 
ATOM     66  H   UNL     1     -42.443  44.899  24.708  1.00  0.00     0.030 H 
ENDBRANCH  53  57
ENDBRANCH  41  42
ENDBRANCH   1  41
TORSDOF 7
ENDMDL
MODEL 2
REMARK VINA RESULT:     -10.6      2.683     11.745
REMARK SMILES Nc1ncnc2c1c(C1CCCC1)cn2-c1cncc(COc2ccc3ccc(N4CCC4)nc3c2)c1
REMARK SMILES IDX 21 1 20 4 16 5 17 6 37 7 18 8 19 11 15 13 2 14 3 15 7 16
REMARK SMILES IDX 4 17 6 18 8 19 5 20 14 22 1 24 9 27 10 28 13 29 11 31 12 34
REMARK SMILES IDX 22 41 23 42 24 43 36 44 25 45 35 47 26 49 34 51 27 52 29 53
REMARK SMILES IDX 28 54 30 57 31 58 33 59 32 60
REMARK H PARENT 21 2 21 3 17 9 37 10 19 12 4 21 14 23 1 25 1 26 9 30 10 32
REMARK H PARENT 10 33 13 35 13 36 11 37 11 38 12 39 12 40 24 46 36 48 25 50
REMARK H PARENT 27 55 28 56 31 61 31 62 33 63 33 64 32 65 32 66
REMARK Flexibility Score: inf
ROOT
ATOM      1  C   UNL     1     -46.450  34.672  27.604  1.00  0.00     0.115 C 
ATOM      2  H   UNL     1     -45.631  34.562  26.883  1.00  0.00     0.076 H 
ATOM      3  H   UNL     1     -46.131  34.310  28.588  1.00  0.00     0.076 H 
ENDROOT
BRANCH   1   4
ATOM      4  C   UNL     1     -46.801  36.134  27.694  1.00  0.00     0.010 A 
ATOM      5  C   UNL     1     -46.156  38.481  27.672  1.00  0.00     0.066 A 
ATOM      6  C   UNL     1     -47.514  38.776  27.777  1.00  0.00     0.051 A 
ATOM      7  C   UNL     1     -45.811  37.126  27.626  1.00  0.00    -0.028 A 
ATOM      8  N   UNL     1     -48.500  37.847  27.833  1.00  0.00    -0.262 NA
ATOM      9  H   UNL     1     -47.902  39.788  27.801  1.00  0.00     0.086 H 
ATOM     10  H   UNL     1     -44.777  36.804  27.559  1.00  0.00     0.065 H 
ATOM     11  C   UNL     1     -48.121  36.551  27.791  1.00  0.00     0.034 A 
ATOM     12  H   UNL     1     -48.938  35.835  27.839  1.00  0.00     0.084 H 
BRANCH   5  13
ATOM     13  N   UNL     1     -45.179  39.527  27.618  1.00  0.00    -0.299 N 
ATOM     14  C   UNL     1     -42.365  41.331  28.885  1.00  0.00     0.136 A 
ATOM     15  N   UNL     1     -42.046  40.627  29.985  1.00  0.00    -0.219 NA
ATOM     16  C   UNL     1     -43.444  40.913  28.085  1.00  0.00     0.065 A 
ATOM     17  C   UNL     1     -42.779  39.544  30.277  1.00  0.00     0.120 A 
ATOM     18  C   UNL     1     -44.142  39.783  28.515  1.00  0.00     0.150 A 
ATOM     19  C   UNL     1     -44.051  41.357  26.865  1.00  0.00    -0.013 A 
ATOM     20  N   UNL     1     -43.832  39.060  29.611  1.00  0.00    -0.218 NA
ATOM     21  H   UNL     1     -42.481  38.996  31.167  1.00  0.00     0.106 H 
ATOM     22  C   UNL     1     -45.103  40.493  26.626  1.00  0.00     0.015 A 
ATOM     23  H   UNL     1     -45.816  40.516  25.815  1.00  0.00     0.083 H 
BRANCH  14  24
ATOM     24  N   UNL     1     -41.589  42.457  28.638  1.00  0.00    -0.383 N 
ATOM     25  H   UNL     1     -42.036  43.147  28.052  1.00  0.00     0.158 HD
ATOM     26  H   UNL     1     -41.216  42.809  29.513  1.00  0.00     0.158 HD
ENDBRANCH  14  24
BRANCH  19  27
ATOM     27  C   UNL     1     -43.619  42.532  26.020  1.00  0.00    -0.014 C 
ATOM     28  C   UNL     1     -44.325  42.653  24.665  1.00  0.00    -0.046 C 
ATOM     29  C   UNL     1     -43.933  43.877  26.681  1.00  0.00    -0.046 C 
ATOM     30  H   UNL     1     -42.542  42.438  25.840  1.00  0.00     0.035 H 
ATOM     31  C   UNL     1     -45.533  43.567  24.885  1.00  0.00    -0.053 C 
ATOM     32  H   UNL     1     -43.649  43.141  23.950  1.00  0.00     0.027 H 
ATOM     33  H   UNL     1     -44.610  41.692  24.224  1.00  0.00     0.027 H 
ATOM     34  C   UNL     1     -45.372  44.170  26.278  1.00  0.00    -0.053 C 
ATOM     35  H   UNL     1     -43.809  43.876  27.768  1.00  0.00     0.027 H 
ATOM     36  H   UNL     1     -43.276  44.652  26.267  1.00  0.00     0.027 H 
ATOM     37  H   UNL     1     -45.562  44.349  24.119  1.00  0.00     0.027 H 
ATOM     38  H   UNL     1     -46.474  43.010  24.814  1.00  0.00     0.027 H 
ATOM     39  H   UNL     1     -46.067  43.688  26.975  1.00  0.00     0.027 H 
ATOM     40  H   UNL     1     -45.589  45.242  26.288  1.00  0.00     0.027 H 
ENDBRANCH  19  27
ENDBRANCH   5  13
ENDBRANCH   1   4
BRANCH   1  41
ATOM     41  O   UNL     1     -47.597  33.937  27.179  1.00  0.00    -0.489 OA
BRANCH  41  42
ATOM     42  C   UNL     1     -47.419  33.019  26.182  1.00  0.00     0.122 A 
ATOM     43  C   UNL     1     -46.614  33.176  25.057  1.00  0.00    -0.019 A 
ATOM     44  C   UNL     1     -48.132  31.827  26.352  1.00  0.00     0.007 A 
ATOM     45  C   UNL     1     -46.530  32.147  24.117  1.00  0.00    -0.049 A 
ATOM     46  H   UNL     1     -46.039  34.079  24.879  1.00  0.00     0.066 H 
ATOM     47  C   UNL     1     -48.068  30.788  25.433  1.00  0.00     0.076 A 
ATOM     48  H   UNL     1     -48.759  31.702  27.231  1.00  0.00     0.069 H 
ATOM     49  C   UNL     1     -47.253  30.957  24.299  1.00  0.00     0.001 A 
ATOM     50  H   UNL     1     -45.898  32.280  23.241  1.00  0.00     0.063 H 
ATOM     51  N   UNL     1     -48.777  29.666  25.649  1.00  0.00    -0.231 NA
ATOM     52  C   UNL     1     -47.190  29.907  23.380  1.00  0.00    -0.049 A 
ATOM     53  C   UNL     1     -48.717  28.657  24.750  1.00  0.00     0.129 A 
ATOM     54  C   UNL     1     -47.927  28.749  23.609  1.00  0.00    -0.019 A 
ATOM     55  H   UNL     1     -46.572  29.979  22.489  1.00  0.00     0.063 H 
ATOM     56  H   UNL     1     -47.872  27.926  22.907  1.00  0.00     0.066 H 
BRANCH  53  57
ATOM     57  N   UNL     1     -49.457  27.485  24.999  1.00  0.00    -0.356 N 
ATOM     58  C   UNL     1     -49.484  26.803  26.263  1.00  0.00     0.021 C 
ATOM     59  C   UNL     1     -50.865  27.309  24.799  1.00  0.00     0.021 C 
ATOM     60  C   UNL     1     -50.765  26.125  25.767  1.00  0.00    -0.018 C 
ATOM     61  H   UNL     1     -48.627  26.147  26.422  1.00  0.00     0.049 H 
ATOM     62  H   UNL     1     -49.621  27.480  27.115  1.00  0.00     0.049 H 
ATOM     63  H   UNL     1     -51.459  28.155  25.161  1.00  0.00     0.049 H 
ATOM     64  H   UNL     1     -51.134  27.058  23.770  1.00  0.00     0.049 H 
ATOM     65  H   UNL     1     -51.572  26.038  26.497  1.00  0.00     0.030 H 
ATOM     66  H   UNL     1     -50.604  25.155  25.281  1.00  0.00     0.030 H 
ENDBRANCH  53  57
ENDBRANCH  41  42
ENDBRANCH   1  41
TORSDOF 7
ENDMDL
MODEL 3
REMARK VINA RESULT:     -10.6      2.415      3.598
REMARK SMILES Nc1ncnc2c1c(C1CCCC1)cn2-c1cncc(COc2ccc3ccc(N4CCC4)nc3c2)c1
REMARK SMILES IDX 21 1 20 4 16 5 17 6 37 7 18 8 19 11 15 13 2 14 3 15 7 16
REMARK SMILES IDX 4 17 6 18 8 19 5 20 14 22 1 24 9 27 10 28 13 29 11 31 12 34
REMARK SMILES IDX 22 41 23 42 24 43 36 44 25 45 35 47 26 49 34 51 27 52 29 53
REMARK SMILES IDX 28 54 30 57 31 58 33 59 32 60
REMARK H PARENT 21 2 21 3 17 9 37 10 19 12 4 21 14 23 1 25 1 26 9 30 10 32
REMARK H PARENT 10 33 13 35 13 36 11 37 11 38 12 39 12 40 24 46 36 48 25 50
REMARK H PARENT 27 55 28 56 31 61 31 62 33 63 33 64 32 65 32 66
REMARK Flexibility Score: inf
ROOT
ATOM      1  C   UNL     1     -48.994  35.018  27.114  1.00  0.00     0.115 C 
ATOM      2  H   UNL     1     -50.017  34.947  26.725  1.00  0.00     0.076 H 
ATOM      3  H   UNL     1     -48.967  34.676  28.155  1.00  0.00     0.076 H 
ENDROOT
BRANCH   1   4
ATOM      4  C   UNL     1     -48.110  34.136  26.270  1.00  0.00     0.010 A 
ATOM      5  C   UNL     1     -47.731  32.090  25.009  1.00  0.00     0.066 A 
ATOM      6  C   UNL     1     -46.489  32.620  24.669  1.00  0.00     0.051 A 
ATOM      7  C   UNL     1     -48.549  32.881  25.824  1.00  0.00    -0.028 A 
ATOM      8  N   UNL     1     -46.036  33.833  25.071  1.00  0.00    -0.262 NA
ATOM      9  H   UNL     1     -45.780  32.109  24.028  1.00  0.00     0.086 H 
ATOM     10  H   UNL     1     -49.527  32.542  26.150  1.00  0.00     0.065 H 
ATOM     11  C   UNL     1     -46.854  34.561  25.860  1.00  0.00     0.034 A 
ATOM     12  H   UNL     1     -46.457  35.527  26.162  1.00  0.00     0.084 H 
BRANCH   5  13
ATOM     13  N   UNL     1     -48.133  30.798  24.539  1.00  0.00    -0.299 N 
ATOM     14  C   UNL     1     -49.018  28.469  21.974  1.00  0.00     0.136 A 
ATOM     15  N   UNL     1     -48.858  29.201  20.858  1.00  0.00    -0.219 NA
ATOM     16  C   UNL     1     -48.745  29.050  23.227  1.00  0.00     0.065 A 
ATOM     17  C   UNL     1     -48.441  30.468  20.985  1.00  0.00     0.120 A 
ATOM     18  C   UNL     1     -48.342  30.387  23.222  1.00  0.00     0.150 A 
ATOM     19  C   UNL     1     -48.759  28.608  24.589  1.00  0.00    -0.013 A 
ATOM     20  N   UNL     1     -48.170  31.134  22.112  1.00  0.00    -0.218 NA
ATOM     21  H   UNL     1     -48.313  31.020  20.058  1.00  0.00     0.106 H 
ATOM     22  C   UNL     1     -48.391  29.702  25.349  1.00  0.00     0.015 A 
ATOM     23  H   UNL     1     -48.312  29.774  26.424  1.00  0.00     0.083 H 
BRANCH  14  24
ATOM     24  N   UNL     1     -49.472  27.169  21.790  1.00  0.00    -0.383 N 
ATOM     25  H   UNL     1     -49.070  26.496  22.426  1.00  0.00     0.158 HD
ATOM     26  H   UNL     1     -50.485  27.168  21.745  1.00  0.00     0.158 HD
ENDBRANCH  14  24
BRANCH  19  27
ATOM     27  C   UNL     1     -49.107  27.224  25.083  1.00  0.00    -0.014 C 
ATOM     28  C   UNL     1     -48.028  26.159  24.850  1.00  0.00    -0.046 C 
ATOM     29  C   UNL     1     -49.302  27.174  26.601  1.00  0.00    -0.046 C 
ATOM     30  H   UNL     1     -50.022  26.905  24.570  1.00  0.00     0.035 H 
ATOM     31  C   UNL     1     -47.168  26.130  26.115  1.00  0.00    -0.053 C 
ATOM     32  H   UNL     1     -48.510  25.180  24.737  1.00  0.00     0.027 H 
ATOM     33  H   UNL     1     -47.430  26.323  23.948  1.00  0.00     0.027 H 
ATOM     34  C   UNL     1     -47.899  26.973  27.157  1.00  0.00    -0.053 C 
ATOM     35  H   UNL     1     -49.779  28.067  27.015  1.00  0.00     0.027 H 
ATOM     36  H   UNL     1     -49.922  26.308  26.863  1.00  0.00     0.027 H 
ATOM     37  H   UNL     1     -47.040  25.099  26.463  1.00  0.00     0.027 H 
ATOM     38  H   UNL     1     -46.167  26.535  25.927  1.00  0.00     0.027 H 
ATOM     39  H   UNL     1     -47.395  27.940  27.273  1.00  0.00     0.027 H 
ATOM     40  H   UNL     1     -47.913  26.490  28.138  1.00  0.00     0.027 H 
ENDBRANCH  19  27
ENDBRANCH   5  13
ENDBRANCH   1   4
BRANCH   1  41
ATOM     41  O   UNL     1     -48.521  36.363  27.046  1.00  0.00    -0.489 OA
BRANCH  41  42
ATOM     42  C   UNL     1     -47.525  36.721  27.911  1.00  0.00     0.122 A 
ATOM     43  C   UNL     1     -47.210  36.086  29.108  1.00  0.00    -0.019 A 
ATOM     44  C   UNL     1     -46.779  37.837  27.511  1.00  0.00     0.007 A 
ATOM     45  C   UNL     1     -46.160  36.567  29.892  1.00  0.00    -0.049 A 
ATOM     46  H   UNL     1     -47.755  35.217  29.463  1.00  0.00     0.066 H 
ATOM     47  C   UNL     1     -45.731  38.337  28.271  1.00  0.00     0.076 A 
ATOM     48  H   UNL     1     -47.022  38.332  26.574  1.00  0.00     0.069 H 
ATOM     49  C   UNL     1     -45.421  37.689  29.480  1.00  0.00     0.001 A 
ATOM     50  H   UNL     1     -45.922  36.064  30.827  1.00  0.00     0.063 H 
ATOM     51  N   UNL     1     -45.050  39.413  27.837  1.00  0.00    -0.231 NA
ATOM     52  C   UNL     1     -44.364  38.196  30.239  1.00  0.00    -0.049 A 
ATOM     53  C   UNL     1     -44.033  39.902  28.581  1.00  0.00     0.129 A 
ATOM     54  C   UNL     1     -43.664  39.309  29.784  1.00  0.00    -0.019 A 
ATOM     55  H   UNL     1     -44.075  37.731  31.179  1.00  0.00     0.063 H 
ATOM     56  H   UNL     1     -42.834  39.698  30.361  1.00  0.00     0.066 H 
BRANCH  53  57
ATOM     57  N   UNL     1     -43.324  41.022  28.104  1.00  0.00    -0.356 N 
ATOM     58  C   UNL     1     -42.005  41.385  28.539  1.00  0.00     0.021 C 
ATOM     59  C   UNL     1     -43.027  41.320  26.734  1.00  0.00     0.021 C 
ATOM     60  C   UNL     1     -41.917  42.233  27.267  1.00  0.00    -0.018 C 
ATOM     61  H   UNL     1     -41.993  41.935  29.482  1.00  0.00     0.049 H 
ATOM     62  H   UNL     1     -41.314  40.534  28.575  1.00  0.00     0.049 H 
ATOM     63  H   UNL     1     -42.678  40.448  26.171  1.00  0.00     0.049 H 
ATOM     64  H   UNL     1     -43.842  41.822  26.207  1.00  0.00     0.049 H 
ATOM     65  H   UNL     1     -40.967  42.190  26.730  1.00  0.00     0.030 H 
ATOM     66  H   UNL     1     -42.216  43.279  27.399  1.00  0.00     0.030 H 
ENDBRANCH  53  57
ENDBRANCH  41  42
ENDBRANCH   1  41
TORSDOF 7
ENDMDL
MODEL 4
REMARK VINA RESULT:     -10.3      2.116      3.025
REMARK SMILES Nc1ncnc2c1c(C1CCCC1)cn2-c1cncc(COc2ccc3ccc(N4CCC4)nc3c2)c1
REMARK SMILES IDX 21 1 20 4 16 5 17 6 37 7 18 8 19 11 15 13 2 14 3 15 7 16
REMARK SMILES IDX 4 17 6 18 8 19 5 20 14 22 1 24 9 27 10 28 13 29 11 31 12 34
REMARK SMILES IDX 22 41 23 42 24 43 36 44 25 45 35 47 26 49 34 51 27 52 29 53
REMARK SMILES IDX 28 54 30 57 31 58 33 59 32 60
REMARK H PARENT 21 2 21 3 17 9 37 10 19 12 4 21 14 23 1 25 1 26 9 30 10 32
REMARK H PARENT 10 33 13 35 13 36 11 37 11 38 12 39 12 40 24 46 36 48 25 50
REMARK H PARENT 27 55 28 56 31 61 31 62 33 63 33 64 32 65 32 66
REMARK Flexibility Score: inf
ROOT
ATOM      1  C   UNL     1     -48.763  34.979  27.130  1.00  0.00     0.115 C 
ATOM      2  H   UNL     1     -49.838  34.966  26.913  1.00  0.00     0.076 H 
ATOM      3  H   UNL     1     -48.592  34.702  28.177  1.00  0.00     0.076 H 
ENDROOT
BRANCH   1   4
ATOM      4  C   UNL     1     -48.090  33.980  26.226  1.00  0.00     0.010 A 
ATOM      5  C   UNL     1     -48.178  32.025  24.778  1.00  0.00     0.066 A 
ATOM      6  C   UNL     1     -46.827  32.247  24.525  1.00  0.00     0.051 A 
ATOM      7  C   UNL     1     -48.809  32.924  25.646  1.00  0.00    -0.028 A 
ATOM      8  N   UNL     1     -46.102  33.262  25.057  1.00  0.00    -0.262 NA
ATOM      9  H   UNL     1     -46.238  31.630  23.855  1.00  0.00     0.086 H 
ATOM     10  H   UNL     1     -49.856  32.820  25.912  1.00  0.00     0.065 H 
ATOM     11  C   UNL     1     -46.749  34.103  25.893  1.00  0.00     0.034 A 
ATOM     12  H   UNL     1     -46.136  34.903  26.300  1.00  0.00     0.084 H 
BRANCH   5  13
ATOM     13  N   UNL     1     -48.869  30.927  24.173  1.00  0.00    -0.299 N 
ATOM     14  C   UNL     1     -50.002  27.537  24.071  1.00  0.00     0.136 A 
ATOM     15  N   UNL     1     -49.562  27.054  25.245  1.00  0.00    -0.219 NA
ATOM     16  C   UNL     1     -49.756  28.883  23.740  1.00  0.00     0.065 A 
ATOM     17  C   UNL     1     -48.898  27.883  26.062  1.00  0.00     0.120 A 
ATOM     18  C   UNL     1     -49.031  29.633  24.668  1.00  0.00     0.150 A 
ATOM     19  C   UNL     1     -50.079  29.747  22.645  1.00  0.00    -0.013 A 
ATOM     20  N   UNL     1     -48.587  29.167  25.855  1.00  0.00    -0.218 NA
ATOM     21  H   UNL     1     -48.570  27.457  27.006  1.00  0.00     0.106 H 
ATOM     22  C   UNL     1     -49.514  30.972  22.946  1.00  0.00     0.015 A 
ATOM     23  H   UNL     1     -49.517  31.874  22.351  1.00  0.00     0.083 H 
BRANCH  14  24
ATOM     24  N   UNL     1     -50.664  26.632  23.251  1.00  0.00    -0.383 N 
ATOM     25  H   UNL     1     -50.669  26.886  22.274  1.00  0.00     0.158 HD
ATOM     26  H   UNL     1     -50.338  25.693  23.451  1.00  0.00     0.158 HD
ENDBRANCH  14  24
BRANCH  19  27
ATOM     27  C   UNL     1     -50.877  29.383  21.416  1.00  0.00    -0.014 C 
ATOM     28  C   UNL     1     -51.287  30.566  20.531  1.00  0.00    -0.046 C 
ATOM     29  C   UNL     1     -50.089  28.500  20.445  1.00  0.00    -0.046 C 
ATOM     30  H   UNL     1     -51.787  28.869  21.746  1.00  0.00     0.035 H 
ATOM     31  C   UNL     1     -50.190  30.720  19.476  1.00  0.00    -0.053 C 
ATOM     32  H   UNL     1     -52.227  30.323  20.019  1.00  0.00     0.027 H 
ATOM     33  H   UNL     1     -51.460  31.496  21.084  1.00  0.00     0.027 H 
ATOM     34  C   UNL     1     -49.303  29.483  19.590  1.00  0.00    -0.053 C 
ATOM     35  H   UNL     1     -49.433  27.775  20.938  1.00  0.00     0.027 H 
ATOM     36  H   UNL     1     -50.786  27.942  19.806  1.00  0.00     0.027 H 
ATOM     37  H   UNL     1     -50.632  30.795  18.476  1.00  0.00     0.027 H 
ATOM     38  H   UNL     1     -49.603  31.630  19.639  1.00  0.00     0.027 H 
ATOM     39  H   UNL     1     -48.360  29.746  20.085  1.00  0.00     0.027 H 
ATOM     40  H   UNL     1     -49.053  29.066  18.610  1.00  0.00     0.027 H 
ENDBRANCH  19  27
ENDBRANCH   5  13
ENDBRANCH   1   4
BRANCH   1  41
ATOM     41  O   UNL     1     -48.217  36.276  26.890  1.00  0.00    -0.489 OA
BRANCH  41  42
ATOM     42  C   UNL     1     -47.273  36.731  27.768  1.00  0.00     0.122 A 
ATOM     43  C   UNL     1     -47.027  36.227  29.042  1.00  0.00    -0.019 A 
ATOM     44  C   UNL     1     -46.507  37.804  27.296  1.00  0.00     0.007 A 
ATOM     45  C   UNL     1     -46.026  36.797  29.830  1.00  0.00    -0.049 A 
ATOM     46  H   UNL     1     -47.591  35.396  29.454  1.00  0.00     0.066 H 
ATOM     47  C   UNL     1     -45.506  38.390  28.059  1.00  0.00     0.076 A 
ATOM     48  H   UNL     1     -46.697  38.197  26.300  1.00  0.00     0.069 H 
ATOM     49  C   UNL     1     -45.266  37.874  29.345  1.00  0.00     0.001 A 
ATOM     50  H   UNL     1     -45.841  36.396  30.824  1.00  0.00     0.063 H 
ATOM     51  N   UNL     1     -44.803  39.420  27.554  1.00  0.00    -0.231 NA
ATOM     52  C   UNL     1     -44.256  38.467  30.106  1.00  0.00    -0.049 A 
ATOM     53  C   UNL     1     -43.832  39.992  28.299  1.00  0.00     0.129 A 
ATOM     54  C   UNL     1     -43.533  39.531  29.578  1.00  0.00    -0.019 A 
ATOM     55  H   UNL     1     -44.021  38.106  31.104  1.00  0.00     0.063 H 
ATOM     56  H   UNL     1     -42.738  39.986  30.157  1.00  0.00     0.066 H 
BRANCH  53  57
ATOM     57  N   UNL     1     -43.099  41.061  27.749  1.00  0.00    -0.356 N 
ATOM     58  C   UNL     1     -43.498  41.794  26.580  1.00  0.00     0.021 C 
ATOM     59  C   UNL     1     -42.684  42.250  28.434  1.00  0.00     0.021 C 
ATOM     60  C   UNL     1     -42.535  42.889  27.048  1.00  0.00    -0.018 C 
ATOM     61  H   UNL     1     -43.236  41.296  25.644  1.00  0.00     0.049 H 
ATOM     62  H   UNL     1     -44.557  42.077  26.589  1.00  0.00     0.049 H 
ATOM     63  H   UNL     1     -43.471  42.681  29.060  1.00  0.00     0.049 H 
ATOM     64  H   UNL     1     -41.758  42.129  29.002  1.00  0.00     0.049 H 
ATOM     65  H   UNL     1     -42.898  43.915  26.956  1.00  0.00     0.030 H 
ATOM     66  H   UNL     1     -41.527  42.817  26.623  1.00  0.00     0.030 H 
ENDBRANCH  53  57
ENDBRANCH  41  42
ENDBRANCH   1  41
TORSDOF 7
ENDMDL
MODEL 5
REMARK VINA RESULT:      -9.9      1.757      2.454
REMARK SMILES Nc1ncnc2c1c(C1CCCC1)cn2-c1cncc(COc2ccc3ccc(N4CCC4)nc3c2)c1
REMARK SMILES IDX 21 1 20 4 16 5 17 6 37 7 18 8 19 11 15 13 2 14 3 15 7 16
REMARK SMILES IDX 4 17 6 18 8 19 5 20 14 22 1 24 9 27 10 28 13 29 11 31 12 34
REMARK SMILES IDX 22 41 23 42 24 43 36 44 25 45 35 47 26 49 34 51 27 52 29 53
REMARK SMILES IDX 28 54 30 57 31 58 33 59 32 60
REMARK H PARENT 21 2 21 3 17 9 37 10 19 12 4 21 14 23 1 25 1 26 9 30 10 32
REMARK H PARENT 10 33 13 35 13 36 11 37 11 38 12 39 12 40 24 46 36 48 25 50
REMARK H PARENT 27 55 28 56 31 61 31 62 33 63 33 64 32 65 32 66
REMARK Flexibility Score: inf
ROOT
ATOM      1  C   UNL     1     -46.958  36.435  26.416  1.00  0.00     0.115 C 
ATOM      2  H   UNL     1     -46.054  36.743  25.876  1.00  0.00     0.076 H 
ATOM      3  H   UNL     1     -47.842  36.608  25.791  1.00  0.00     0.076 H 
ENDROOT
BRANCH   1   4
ATOM      4  C   UNL     1     -46.839  34.965  26.727  1.00  0.00     0.010 A 
ATOM      5  C   UNL     1     -47.082  32.630  26.086  1.00  0.00     0.066 A 
ATOM      6  C   UNL     1     -46.518  32.313  27.320  1.00  0.00     0.051 A 
ATOM      7  C   UNL     1     -47.234  33.991  25.797  1.00  0.00    -0.028 A 
ATOM      8  N   UNL     1     -46.115  33.225  28.237  1.00  0.00    -0.262 NA
ATOM      9  H   UNL     1     -46.333  31.294  27.644  1.00  0.00     0.086 H 
ATOM     10  H   UNL     1     -47.676  34.330  24.867  1.00  0.00     0.065 H 
ATOM     11  C   UNL     1     -46.284  34.527  27.921  1.00  0.00     0.034 A 
ATOM     12  H   UNL     1     -45.950  35.229  28.680  1.00  0.00     0.084 H 
BRANCH   5  13
ATOM     13  N   UNL     1     -47.480  31.601  25.173  1.00  0.00    -0.299 N 
ATOM     14  C   UNL     1     -47.506  30.014  21.969  1.00  0.00     0.136 A 
ATOM     15  N   UNL     1     -46.670  30.791  21.259  1.00  0.00    -0.219 NA
ATOM     16  C   UNL     1     -47.751  30.316  23.322  1.00  0.00     0.065 A 
ATOM     17  C   UNL     1     -46.099  31.835  21.875  1.00  0.00     0.120 A 
ATOM     18  C   UNL     1     -47.113  31.446  23.836  1.00  0.00     0.150 A 
ATOM     19  C   UNL     1     -48.518  29.734  24.382  1.00  0.00    -0.013 A 
ATOM     20  N   UNL     1     -46.266  32.234  23.141  1.00  0.00    -0.218 NA
ATOM     21  H   UNL     1     -45.422  32.431  21.270  1.00  0.00     0.106 H 
ATOM     22  C   UNL     1     -48.332  30.551  25.481  1.00  0.00     0.015 A 
ATOM     23  H   UNL     1     -48.768  30.457  26.465  1.00  0.00     0.083 H 
BRANCH  14  24
ATOM     24  N   UNL     1     -48.089  28.958  21.279  1.00  0.00    -0.383 N 
ATOM     25  H   UNL     1     -48.698  28.382  21.841  1.00  0.00     0.158 HD
ATOM     26  H   UNL     1     -48.496  29.302  20.416  1.00  0.00     0.158 HD
ENDBRANCH  14  24
BRANCH  19  27
ATOM     27  C   UNL     1     -49.357  28.480  24.302  1.00  0.00    -0.014 C 
ATOM     28  C   UNL     1     -48.586  27.203  23.948  1.00  0.00    -0.046 C 
ATOM     29  C   UNL     1     -50.001  28.119  25.644  1.00  0.00    -0.046 C 
ATOM     30  H   UNL     1     -50.128  28.640  23.540  1.00  0.00     0.035 H 
ATOM     31  C   UNL     1     -48.183  26.558  25.276  1.00  0.00    -0.053 C 
ATOM     32  H   UNL     1     -49.257  26.514  23.419  1.00  0.00     0.027 H 
ATOM     33  H   UNL     1     -47.725  27.371  23.293  1.00  0.00     0.027 H 
ATOM     34  C   UNL     1     -48.936  27.309  26.370  1.00  0.00    -0.053 C 
ATOM     35  H   UNL     1     -50.320  28.987  26.229  1.00  0.00     0.027 H 
ATOM     36  H   UNL     1     -50.881  27.487  25.471  1.00  0.00     0.027 H 
ATOM     37  H   UNL     1     -48.447  25.494  25.276  1.00  0.00     0.027 H 
ATOM     38  H   UNL     1     -47.101  26.622  25.439  1.00  0.00     0.027 H 
ATOM     39  H   UNL     1     -48.249  27.978  26.902  1.00  0.00     0.027 H 
ATOM     40  H   UNL     1     -49.370  26.630  27.109  1.00  0.00     0.027 H 
ENDBRANCH  19  27
ENDBRANCH   5  13
ENDBRANCH   1   4
BRANCH   1  41
ATOM     41  O   UNL     1     -47.090  37.166  27.634  1.00  0.00    -0.489 OA
BRANCH  41  42
ATOM     42  C   UNL     1     -46.081  38.028  27.960  1.00  0.00     0.122 A 
ATOM     43  C   UNL     1     -45.322  37.999  29.126  1.00  0.00    -0.019 A 
ATOM     44  C   UNL     1     -45.824  39.014  27.000  1.00  0.00     0.007 A 
ATOM     45  C   UNL     1     -44.319  38.950  29.323  1.00  0.00    -0.049 A 
ATOM     46  H   UNL     1     -45.479  37.255  29.901  1.00  0.00     0.066 H 
ATOM     47  C   UNL     1     -44.834  39.972  27.170  1.00  0.00     0.076 A 
ATOM     48  H   UNL     1     -46.415  39.036  26.087  1.00  0.00     0.069 H 
ATOM     49  C   UNL     1     -44.073  39.935  28.352  1.00  0.00     0.001 A 
ATOM     50  H   UNL     1     -43.731  38.919  30.238  1.00  0.00     0.063 H 
ATOM     51  N   UNL     1     -44.633  40.897  26.214  1.00  0.00    -0.231 NA
ATOM     52  C   UNL     1     -43.077  40.901  28.516  1.00  0.00    -0.049 A 
ATOM     53  C   UNL     1     -43.672  41.832  26.383  1.00  0.00     0.129 A 
ATOM     54  C   UNL     1     -42.875  41.854  27.523  1.00  0.00    -0.019 A 
ATOM     55  H   UNL     1     -42.453  40.917  29.407  1.00  0.00     0.063 H 
ATOM     56  H   UNL     1     -42.094  42.597  27.638  1.00  0.00     0.066 H 
BRANCH  53  57
ATOM     57  N   UNL     1     -43.468  42.784  25.366  1.00  0.00    -0.356 N 
ATOM     58  C   UNL     1     -44.486  43.670  24.876  1.00  0.00     0.021 C 
ATOM     59  C   UNL     1     -42.471  43.814  25.352  1.00  0.00     0.021 C 
ATOM     60  C   UNL     1     -43.346  44.522  24.311  1.00  0.00    -0.018 C 
ATOM     61  H   UNL     1     -45.148  43.209  24.140  1.00  0.00     0.049 H 
ATOM     62  H   UNL     1     -45.064  44.146  25.677  1.00  0.00     0.049 H 
ATOM     63  H   UNL     1     -42.379  44.335  26.310  1.00  0.00     0.049 H 
ATOM     64  H   UNL     1     -41.495  43.475  24.998  1.00  0.00     0.049 H 
ATOM     65  H   UNL     1     -43.451  45.602  24.434  1.00  0.00     0.030 H 
ATOM     66  H   UNL     1     -43.085  44.296  23.270  1.00  0.00     0.030 H 
ENDBRANCH  53  57
ENDBRANCH  41  42
ENDBRANCH   1  41
TORSDOF 7
ENDMDL
MODEL 6
REMARK VINA RESULT:      -9.9      2.296     11.546
REMARK SMILES Nc1ncnc2c1c(C1CCCC1)cn2-c1cncc(COc2ccc3ccc(N4CCC4)nc3c2)c1
REMARK SMILES IDX 21 1 20 4 16 5 17 6 37 7 18 8 19 11 15 13 2 14 3 15 7 16
REMARK SMILES IDX 4 17 6 18 8 19 5 20 14 22 1 24 9 27 10 28 13 29 11 31 12 34
REMARK SMILES IDX 22 41 23 42 24 43 36 44 25 45 35 47 26 49 34 51 27 52 29 53
REMARK SMILES IDX 28 54 30 57 31 58 33 59 32 60
REMARK H PARENT 21 2 21 3 17 9 37 10 19 12 4 21 14 23 1 25 1 26 9 30 10 32
REMARK H PARENT 10 33 13 35 13 36 11 37 11 38 12 39 12 40 24 46 36 48 25 50
REMARK H PARENT 27 55 28 56 31 61 31 62 33 63 33 64 32 65 32 66
REMARK Flexibility Score: inf
ROOT
ATOM      1  C   UNL     1     -48.746  35.504  26.954  1.00  0.00     0.115 C 
ATOM      2  H   UNL     1     -49.722  35.820  27.341  1.00  0.00     0.076 H 
ATOM      3  H   UNL     1     -48.698  35.681  25.873  1.00  0.00     0.076 H 
ENDROOT
BRANCH   1   4
ATOM      4  C   UNL     1     -47.682  36.316  27.646  1.00  0.00     0.010 A 
ATOM      5  C   UNL     1     -46.352  38.344  27.851  1.00  0.00     0.066 A 
ATOM      6  C   UNL     1     -45.805  37.777  28.999  1.00  0.00     0.051 A 
ATOM      7  C   UNL     1     -47.315  37.585  27.175  1.00  0.00    -0.028 A 
ATOM      8  N   UNL     1     -46.143  36.560  29.492  1.00  0.00    -0.262 NA
ATOM      9  H   UNL     1     -45.066  38.278  29.616  1.00  0.00     0.086 H 
ATOM     10  H   UNL     1     -47.784  37.941  26.264  1.00  0.00     0.065 H 
ATOM     11  C   UNL     1     -47.071  35.859  28.806  1.00  0.00     0.034 A 
ATOM     12  H   UNL     1     -47.316  34.889  29.230  1.00  0.00     0.084 H 
BRANCH   5  13
ATOM     13  N   UNL     1     -45.938  39.639  27.400  1.00  0.00    -0.299 N 
ATOM     14  C   UNL     1     -46.548  42.892  26.049  1.00  0.00     0.136 A 
ATOM     15  N   UNL     1     -47.887  42.906  25.932  1.00  0.00    -0.219 NA
ATOM     16  C   UNL     1     -45.911  41.752  26.573  1.00  0.00     0.065 A 
ATOM     17  C   UNL     1     -48.568  41.819  26.322  1.00  0.00     0.120 A 
ATOM     18  C   UNL     1     -46.734  40.678  26.918  1.00  0.00     0.150 A 
ATOM     19  C   UNL     1     -44.562  41.378  26.877  1.00  0.00    -0.013 A 
ATOM     20  N   UNL     1     -48.080  40.676  26.814  1.00  0.00    -0.218 NA
ATOM     21  H   UNL     1     -49.648  41.875  26.222  1.00  0.00     0.106 H 
ATOM     22  C   UNL     1     -44.626  40.087  27.367  1.00  0.00     0.015 A 
ATOM     23  H   UNL     1     -43.812  39.449  27.680  1.00  0.00     0.083 H 
BRANCH  14  24
ATOM     24  N   UNL     1     -45.888  44.033  25.611  1.00  0.00    -0.383 N 
ATOM     25  H   UNL     1     -45.224  43.868  24.868  1.00  0.00     0.158 HD
ATOM     26  H   UNL     1     -46.565  44.767  25.429  1.00  0.00     0.158 HD
ENDBRANCH  14  24
BRANCH  19  27
ATOM     27  C   UNL     1     -43.329  42.230  26.695  1.00  0.00    -0.014 C 
ATOM     28  C   UNL     1     -43.188  43.390  27.687  1.00  0.00    -0.046 C 
ATOM     29  C   UNL     1     -42.034  41.443  26.918  1.00  0.00    -0.046 C 
ATOM     30  H   UNL     1     -43.354  42.645  25.681  1.00  0.00     0.035 H 
ATOM     31  C   UNL     1     -42.354  42.862  28.857  1.00  0.00    -0.053 C 
ATOM     32  H   UNL     1     -42.632  44.206  27.208  1.00  0.00     0.027 H 
ATOM     33  H   UNL     1     -44.143  43.811  28.018  1.00  0.00     0.027 H 
ATOM     34  C   UNL     1     -41.805  41.507  28.421  1.00  0.00    -0.053 C 
ATOM     35  H   UNL     1     -42.076  40.411  26.557  1.00  0.00     0.027 H 
ATOM     36  H   UNL     1     -41.205  41.946  26.404  1.00  0.00     0.027 H 
ATOM     37  H   UNL     1     -41.542  43.560  29.089  1.00  0.00     0.027 H 
ATOM     38  H   UNL     1     -42.960  42.758  29.764  1.00  0.00     0.027 H 
ATOM     39  H   UNL     1     -42.356  40.703  28.923  1.00  0.00     0.027 H 
ATOM     40  H   UNL     1     -40.748  41.391  28.680  1.00  0.00     0.027 H 
ENDBRANCH  19  27
ENDBRANCH   5  13
ENDBRANCH   1   4
BRANCH   1  41
ATOM     41  O   UNL     1     -48.525  34.118  27.215  1.00  0.00    -0.489 OA
BRANCH  41  42
ATOM     42  C   UNL     1     -48.003  33.365  26.201  1.00  0.00     0.122 A 
ATOM     43  C   UNL     1     -46.776  33.568  25.577  1.00  0.00    -0.019 A 
ATOM     44  C   UNL     1     -48.814  32.301  25.787  1.00  0.00     0.007 A 
ATOM     45  C   UNL     1     -46.372  32.713  24.549  1.00  0.00    -0.049 A 
ATOM     46  H   UNL     1     -46.109  34.376  25.861  1.00  0.00     0.066 H 
ATOM     47  C   UNL     1     -48.438  31.437  24.768  1.00  0.00     0.076 A 
ATOM     48  H   UNL     1     -49.772  32.140  26.276  1.00  0.00     0.069 H 
ATOM     49  C   UNL     1     -47.196  31.652  24.142  1.00  0.00     0.001 A 
ATOM     50  H   UNL     1     -45.411  32.881  24.067  1.00  0.00     0.063 H 
ATOM     51  N   UNL     1     -49.259  30.433  24.412  1.00  0.00    -0.231 NA
ATOM     52  C   UNL     1     -46.823  30.777  23.119  1.00  0.00    -0.049 A 
ATOM     53  C   UNL     1     -48.893  29.595  23.416  1.00  0.00     0.129 A 
ATOM     54  C   UNL     1     -47.677  29.741  22.756  1.00  0.00    -0.019 A 
ATOM     55  H   UNL     1     -45.872  30.890  22.605  1.00  0.00     0.063 H 
ATOM     56  H   UNL     1     -47.387  29.050  21.973  1.00  0.00     0.066 H 
BRANCH  53  57
ATOM     57  N   UNL     1     -49.761  28.543  23.065  1.00  0.00    -0.356 N 
ATOM     58  C   UNL     1     -51.124  28.726  22.654  1.00  0.00     0.021 C 
ATOM     59  C   UNL     1     -49.524  27.542  22.066  1.00  0.00     0.021 C 
ATOM     60  C   UNL     1     -51.040  27.316  22.061  1.00  0.00    -0.018 C 
ATOM     61  H   UNL     1     -51.817  28.853  23.487  1.00  0.00     0.049 H 
ATOM     62  H   UNL     1     -51.248  29.529  21.917  1.00  0.00     0.049 H 
ATOM     63  H   UNL     1     -49.114  27.952  21.137  1.00  0.00     0.049 H 
ATOM     64  H   UNL     1     -48.921  26.703  22.420  1.00  0.00     0.049 H 
ATOM     65  H   UNL     1     -51.498  27.183  21.079  1.00  0.00     0.030 H 
ATOM     66  H   UNL     1     -51.382  26.521  22.735  1.00  0.00     0.030 H 
ENDBRANCH  53  57
ENDBRANCH  41  42
ENDBRANCH   1  41
TORSDOF 7
ENDMDL
MODEL 7
REMARK VINA RESULT:      -9.2      2.691      4.005
REMARK SMILES Nc1ncnc2c1c(C1CCCC1)cn2-c1cncc(COc2ccc3ccc(N4CCC4)nc3c2)c1
REMARK SMILES IDX 21 1 20 4 16 5 17 6 37 7 18 8 19 11 15 13 2 14 3 15 7 16
REMARK SMILES IDX 4 17 6 18 8 19 5 20 14 22 1 24 9 27 10 28 13 29 11 31 12 34
REMARK SMILES IDX 22 41 23 42 24 43 36 44 25 45 35 47 26 49 34 51 27 52 29 53
REMARK SMILES IDX 28 54 30 57 31 58 33 59 32 60
REMARK H PARENT 21 2 21 3 17 9 37 10 19 12 4 21 14 23 1 25 1 26 9 30 10 32
REMARK H PARENT 10 33 13 35 13 36 11 37 11 38 12 39 12 40 24 46 36 48 25 50
REMARK H PARENT 27 55 28 56 31 61 31 62 33 63 33 64 32 65 32 66
REMARK Flexibility Score: inf
ROOT
ATOM      1  C   UNL     1     -48.641  35.536  27.412  1.00  0.00     0.115 C 
ATOM      2  H   UNL     1     -49.335  36.114  26.789  1.00  0.00     0.076 H 
ATOM      3  H   UNL     1     -49.188  35.055  28.231  1.00  0.00     0.076 H 
ENDROOT
BRANCH   1   4
ATOM      4  C   UNL     1     -48.000  34.483  26.546  1.00  0.00     0.010 A 
ATOM      5  C   UNL     1     -48.111  32.389  25.311  1.00  0.00     0.066 A 
ATOM      6  C   UNL     1     -46.806  32.650  24.901  1.00  0.00     0.051 A 
ATOM      7  C   UNL     1     -48.708  33.339  26.147  1.00  0.00    -0.028 A 
ATOM      8  N   UNL     1     -46.095  33.749  25.255  1.00  0.00    -0.262 NA
ATOM      9  H   UNL     1     -46.249  31.997  24.237  1.00  0.00     0.086 H 
ATOM     10  H   UNL     1     -49.716  33.211  26.527  1.00  0.00     0.065 H 
ATOM     11  C   UNL     1     -46.707  34.638  26.067  1.00  0.00     0.034 A 
ATOM     12  H   UNL     1     -46.106  35.505  26.329  1.00  0.00     0.084 H 
BRANCH   5  13
ATOM     13  N   UNL     1     -48.791  31.201  24.889  1.00  0.00    -0.299 N 
ATOM     14  C   UNL     1     -51.580  29.443  23.505  1.00  0.00     0.136 A 
ATOM     15  N   UNL     1     -52.421  30.444  23.193  1.00  0.00    -0.219 NA
ATOM     16  C   UNL     1     -50.329  29.744  24.076  1.00  0.00     0.065 A 
ATOM     17  C   UNL     1     -52.030  31.701  23.443  1.00  0.00     0.120 A 
ATOM     18  C   UNL     1     -50.055  31.093  24.309  1.00  0.00     0.150 A 
ATOM     19  C   UNL     1     -49.186  28.991  24.500  1.00  0.00    -0.013 A 
ATOM     20  N   UNL     1     -50.884  32.111  23.996  1.00  0.00    -0.218 NA
ATOM     21  H   UNL     1     -52.734  32.481  23.165  1.00  0.00     0.106 H 
ATOM     22  C   UNL     1     -48.284  29.915  24.994  1.00  0.00     0.015 A 
ATOM     23  H   UNL     1     -47.313  29.733  25.431  1.00  0.00     0.083 H 
BRANCH  14  24
ATOM     24  N   UNL     1     -52.041  28.158  23.246  1.00  0.00    -0.383 N 
ATOM     25  H   UNL     1     -51.382  27.429  23.475  1.00  0.00     0.158 HD
ATOM     26  H   UNL     1     -52.966  28.044  23.645  1.00  0.00     0.158 HD
ENDBRANCH  14  24
BRANCH  19  27
ATOM     27  C   UNL     1     -49.014  27.494  24.418  1.00  0.00    -0.014 C 
ATOM     28  C   UNL     1     -47.567  26.998  24.528  1.00  0.00    -0.046 C 
ATOM     29  C   UNL     1     -49.704  26.760  25.571  1.00  0.00    -0.046 C 
ATOM     30  H   UNL     1     -49.420  27.160  23.456  1.00  0.00     0.035 H 
ATOM     31  C   UNL     1     -47.320  26.702  26.009  1.00  0.00    -0.053 C 
ATOM     32  H   UNL     1     -47.465  26.060  23.966  1.00  0.00     0.027 H 
ATOM     33  H   UNL     1     -46.827  27.694  24.117  1.00  0.00     0.027 H 
ATOM     34  C   UNL     1     -48.680  26.773  26.697  1.00  0.00    -0.053 C 
ATOM     35  H   UNL     1     -50.652  27.212  25.879  1.00  0.00     0.027 H 
ATOM     36  H   UNL     1     -49.906  25.721  25.278  1.00  0.00     0.027 H 
ATOM     37  H   UNL     1     -46.871  25.710  26.127  1.00  0.00     0.027 H 
ATOM     38  H   UNL     1     -46.627  27.426  26.451  1.00  0.00     0.027 H 
ATOM     39  H   UNL     1     -48.759  27.705  27.270  1.00  0.00     0.027 H 
ATOM     40  H   UNL     1     -48.829  25.945  27.397  1.00  0.00     0.027 H 
ENDBRANCH  19  27
ENDBRANCH   5  13
ENDBRANCH   1   4
BRANCH   1  41
ATOM     41  O   UNL     1     -47.628  36.382  27.954  1.00  0.00    -0.489 OA
BRANCH  41  42
ATOM     42  C   UNL     1     -47.713  37.718  27.679  1.00  0.00     0.122 A 
ATOM     43  C   UNL     1     -48.856  38.506  27.783  1.00  0.00    -0.019 A 
ATOM     44  C   UNL     1     -46.514  38.304  27.256  1.00  0.00     0.007 A 
ATOM     45  C   UNL     1     -48.792  39.864  27.465  1.00  0.00    -0.049 A 
ATOM     46  H   UNL     1     -49.809  38.102  28.107  1.00  0.00     0.066 H 
ATOM     47  C   UNL     1     -46.422  39.651  26.932  1.00  0.00     0.076 A 
ATOM     48  H   UNL     1     -45.620  37.690  27.176  1.00  0.00     0.069 H 
ATOM     49  C   UNL     1     -47.583  40.438  27.040  1.00  0.00     0.001 A 
ATOM     50  H   UNL     1     -49.691  40.471  27.550  1.00  0.00     0.063 H 
ATOM     51  N   UNL     1     -45.243  40.159  26.531  1.00  0.00    -0.231 NA
ATOM     52  C   UNL     1     -47.483  41.793  26.716  1.00  0.00    -0.049 A 
ATOM     53  C   UNL     1     -45.157  41.469  26.211  1.00  0.00     0.129 A 
ATOM     54  C   UNL     1     -46.261  42.311  26.301  1.00  0.00    -0.019 A 
ATOM     55  H   UNL     1     -48.345  42.452  26.787  1.00  0.00     0.063 H 
ATOM     56  H   UNL     1     -46.173  43.364  26.061  1.00  0.00     0.066 H 
BRANCH  53  57
ATOM     57  N   UNL     1     -43.911  41.985  25.804  1.00  0.00    -0.356 N 
ATOM     58  C   UNL     1     -43.688  43.355  25.435  1.00  0.00     0.021 C 
ATOM     59  C   UNL     1     -42.680  41.913  26.536  1.00  0.00     0.021 C 
ATOM     60  C   UNL     1     -42.199  43.081  25.667  1.00  0.00    -0.018 C 
ATOM     61  H   UNL     1     -43.977  43.581  24.407  1.00  0.00     0.049 H 
ATOM     62  H   UNL     1     -44.140  44.069  26.134  1.00  0.00     0.049 H 
ATOM     63  H   UNL     1     -42.799  42.144  27.599  1.00  0.00     0.049 H 
ATOM     64  H   UNL     1     -42.144  40.970  26.400  1.00  0.00     0.049 H 
ATOM     65  H   UNL     1     -41.646  43.865  26.189  1.00  0.00     0.030 H 
ATOM     66  H   UNL     1     -41.649  42.780  24.768  1.00  0.00     0.030 H 
ENDBRANCH  53  57
ENDBRANCH  41  42
ENDBRANCH   1  41
TORSDOF 7
ENDMDL
