MODEL 1
REMARK VINA RESULT:     -11.2      0.000      0.000
REMARK SMILES CC1(NCc2cc3ccc(CNC(=O)c4cc(=O)n5ccccc5n4)cc3[nH]2)CCCC1
REMARK SMILES IDX 5 1 6 2 7 3 8 4 9 5 10 6 26 7 27 8 28 9 4 15 3 18 2 20 29 21
REMARK SMILES IDX 32 22 30 23 31 26 1 33 11 37 12 40 13 41 14 43 15 44 16 45
REMARK SMILES IDX 25 46 17 47 24 49 18 50 19 51 23 52 20 53 22 54 21 56
REMARK H PARENT 6 10 8 11 9 12 26 13 28 14 4 16 4 17 3 19 29 24 29 25 32 27
REMARK H PARENT 32 28 30 29 30 30 31 31 31 32 1 34 1 35 1 36 11 38 11 39 12 42
REMARK H PARENT 16 48 23 55 20 57 22 58 21 59
REMARK Flexibility Score: inf
ROOT
ATOM      1  C   UNL     1     -48.146  31.139  24.665  1.00  0.00     0.030 A 
ATOM      2  C   UNL     1     -46.983  31.871  24.521  1.00  0.00    -0.032 A 
ATOM      3  C   UNL     1     -47.132  33.088  25.240  1.00  0.00    -0.000 A 
ATOM      4  C   UNL     1     -46.303  34.203  25.462  1.00  0.00    -0.052 A 
ATOM      5  C   UNL     1     -46.774  35.263  26.246  1.00  0.00    -0.057 A 
ATOM      6  C   UNL     1     -48.059  35.235  26.806  1.00  0.00    -0.027 A 
ATOM      7  C   UNL     1     -48.891  34.122  26.596  1.00  0.00    -0.033 A 
ATOM      8  C   UNL     1     -48.401  33.072  25.811  1.00  0.00     0.046 A 
ATOM      9  N   UNL     1     -48.994  31.883  25.451  1.00  0.00    -0.357 N 
ATOM     10  H   UNL     1     -46.112  31.552  23.962  1.00  0.00     0.065 H 
ATOM     11  H   UNL     1     -45.307  34.239  25.033  1.00  0.00     0.063 H 
ATOM     12  H   UNL     1     -46.122  36.117  26.417  1.00  0.00     0.063 H 
ATOM     13  H   UNL     1     -49.883  34.079  27.038  1.00  0.00     0.065 H 
ATOM     14  H   UNL     1     -49.924  31.605  25.734  1.00  0.00     0.166 HD
ENDROOT
BRANCH   1  15
ATOM     15  C   UNL     1     -48.532  29.804  24.126  1.00  0.00     0.036 C 
ATOM     16  H   UNL     1     -48.618  29.885  23.037  1.00  0.00     0.049 H 
ATOM     17  H   UNL     1     -49.513  29.520  24.520  1.00  0.00     0.049 H 
BRANCH  15  18
ATOM     18  N   UNL     1     -47.508  28.835  24.495  1.00  0.00    -0.306 NA
ATOM     19  H   UNL     1     -46.913  29.249  25.212  1.00  0.00     0.123 HD
BRANCH  18  20
ATOM     20  C   UNL     1     -48.009  27.533  24.951  1.00  0.00     0.016 C 
ATOM     21  C   UNL     1     -46.853  26.516  24.935  1.00  0.00    -0.035 C 
ATOM     22  C   UNL     1     -48.396  27.509  26.440  1.00  0.00    -0.035 C 
ATOM     23  C   UNL     1     -47.277  25.410  25.899  1.00  0.00    -0.051 C 
ATOM     24  H   UNL     1     -46.638  26.125  23.934  1.00  0.00     0.029 H 
ATOM     25  H   UNL     1     -45.926  26.969  25.314  1.00  0.00     0.029 H 
ATOM     26  C   UNL     1     -48.288  26.044  26.854  1.00  0.00    -0.051 C 
ATOM     27  H   UNL     1     -49.397  27.910  26.633  1.00  0.00     0.029 H 
ATOM     28  H   UNL     1     -47.685  28.099  27.034  1.00  0.00     0.029 H 
ATOM     29  H   UNL     1     -47.742  24.578  25.356  1.00  0.00     0.027 H 
ATOM     30  H   UNL     1     -46.414  25.003  26.437  1.00  0.00     0.027 H 
ATOM     31  H   UNL     1     -47.977  25.948  27.899  1.00  0.00     0.027 H 
ATOM     32  H   UNL     1     -49.259  25.544  26.756  1.00  0.00     0.027 H 
BRANCH  20  33
ATOM     33  C   UNL     1     -49.161  27.043  24.053  1.00  0.00    -0.047 C 
ATOM     34  H   UNL     1     -48.929  26.063  23.618  1.00  0.00     0.025 H 
ATOM     35  H   UNL     1     -50.100  26.932  24.605  1.00  0.00     0.025 H 
ATOM     36  H   UNL     1     -49.359  27.740  23.232  1.00  0.00     0.025 H 
ENDBRANCH  20  33
ENDBRANCH  18  20
ENDBRANCH  15  18
ENDBRANCH   1  15
BRANCH   6  37
ATOM     37  C   UNL     1     -48.541  36.374  27.670  1.00  0.00     0.043 C 
ATOM     38  H   UNL     1     -49.472  36.791  27.269  1.00  0.00     0.054 H 
ATOM     39  H   UNL     1     -48.755  36.015  28.684  1.00  0.00     0.054 H 
BRANCH  37  40
ATOM     40  N   UNL     1     -47.572  37.439  27.703  1.00  0.00    -0.347 N 
ATOM     41  C   UNL     1     -46.628  37.553  28.694  1.00  0.00     0.270 C 
ATOM     42  H   UNL     1     -47.403  37.982  26.863  1.00  0.00     0.164 HD
ATOM     43  O   UNL     1     -46.600  36.869  29.710  1.00  0.00    -0.268 OA
BRANCH  41  44
ATOM     44  C   UNL     1     -45.599  38.614  28.385  1.00  0.00     0.136 A 
ATOM     45  C   UNL     1     -45.764  39.288  27.245  1.00  0.00     0.035 A 
ATOM     46  N   UNL     1     -44.575  38.826  29.282  1.00  0.00    -0.225 NA
ATOM     47  C   UNL     1     -44.792  40.335  26.908  1.00  0.00     0.258 A 
ATOM     48  H   UNL     1     -46.574  39.113  26.549  1.00  0.00     0.071 H 
ATOM     49  C   UNL     1     -43.721  39.755  28.981  1.00  0.00     0.140 A 
ATOM     50  O   UNL     1     -44.937  40.960  25.859  1.00  0.00    -0.269 OA
ATOM     51  N   UNL     1     -43.773  40.532  27.829  1.00  0.00    -0.268 N 
ATOM     52  C   UNL     1     -42.598  40.023  29.925  1.00  0.00    -0.019 A 
ATOM     53  C   UNL     1     -42.815  41.508  27.580  1.00  0.00     0.014 A 
ATOM     54  C   UNL     1     -41.699  40.975  29.642  1.00  0.00    -0.057 A 
ATOM     55  H   UNL     1     -42.549  39.426  30.826  1.00  0.00     0.066 H 
ATOM     56  C   UNL     1     -41.808  41.742  28.431  1.00  0.00    -0.045 A 
ATOM     57  H   UNL     1     -42.917  42.078  26.658  1.00  0.00     0.082 H 
ATOM     58  H   UNL     1     -40.876  41.185  30.316  1.00  0.00     0.062 H 
ATOM     59  H   UNL     1     -41.066  42.508  28.226  1.00  0.00     0.064 H 
ENDBRANCH  41  44
ENDBRANCH  37  40
ENDBRANCH   6  37
TORSDOF 7
ENDMDL
MODEL 2
REMARK VINA RESULT:     -10.2      2.175      3.643
REMARK SMILES CC1(NCc2cc3ccc(CNC(=O)c4cc(=O)n5ccccc5n4)cc3[nH]2)CCCC1
REMARK SMILES IDX 5 1 6 2 7 3 8 4 9 5 10 6 26 7 27 8 28 9 4 15 3 18 2 20 29 21
REMARK SMILES IDX 32 22 30 23 31 26 1 33 11 37 12 40 13 41 14 43 15 44 16 45
REMARK SMILES IDX 25 46 17 47 24 49 18 50 19 51 23 52 20 53 22 54 21 56
REMARK H PARENT 6 10 8 11 9 12 26 13 28 14 4 16 4 17 3 19 29 24 29 25 32 27
REMARK H PARENT 32 28 30 29 30 30 31 31 31 32 1 34 1 35 1 36 11 38 11 39 12 42
REMARK H PARENT 16 48 23 55 20 57 22 58 21 59
REMARK Flexibility Score: inf
ROOT
ATOM      1  C   UNL     1     -46.700  32.844  25.152  1.00  0.00     0.030 A 
ATOM      2  C   UNL     1     -47.898  33.419  25.531  1.00  0.00    -0.032 A 
ATOM      3  C   UNL     1     -47.618  34.455  26.464  1.00  0.00    -0.000 A 
ATOM      4  C   UNL     1     -48.410  35.373  27.177  1.00  0.00    -0.052 A 
ATOM      5  C   UNL     1     -47.793  36.289  28.038  1.00  0.00    -0.057 A 
ATOM      6  C   UNL     1     -46.402  36.301  28.207  1.00  0.00    -0.027 A 
ATOM      7  C   UNL     1     -45.601  35.392  27.493  1.00  0.00    -0.033 A 
ATOM      8  C   UNL     1     -46.237  34.486  26.636  1.00  0.00     0.046 A 
ATOM      9  N   UNL     1     -45.704  33.505  25.831  1.00  0.00    -0.357 N 
ATOM     10  H   UNL     1     -48.873  33.126  25.164  1.00  0.00     0.065 H 
ATOM     11  H   UNL     1     -49.489  35.374  27.057  1.00  0.00     0.063 H 
ATOM     12  H   UNL     1     -48.416  36.999  28.579  1.00  0.00     0.063 H 
ATOM     13  H   UNL     1     -44.520  35.401  27.601  1.00  0.00     0.065 H 
ATOM     14  H   UNL     1     -44.715  33.308  25.755  1.00  0.00     0.166 HD
ENDROOT
BRANCH   1  15
ATOM     15  C   UNL     1     -46.410  31.727  24.209  1.00  0.00     0.036 C 
ATOM     16  H   UNL     1     -46.267  30.812  24.795  1.00  0.00     0.049 H 
ATOM     17  H   UNL     1     -45.478  31.932  23.673  1.00  0.00     0.049 H 
BRANCH  15  18
ATOM     18  N   UNL     1     -47.532  31.584  23.290  1.00  0.00    -0.306 NA
ATOM     19  H   UNL     1     -47.268  31.989  22.392  1.00  0.00     0.123 HD
BRANCH  18  20
ATOM     20  C   UNL     1     -48.018  30.213  23.098  1.00  0.00     0.016 C 
ATOM     21  C   UNL     1     -49.193  29.957  24.059  1.00  0.00    -0.035 C 
ATOM     22  C   UNL     1     -48.700  29.985  21.738  1.00  0.00    -0.035 C 
ATOM     23  C   UNL     1     -49.967  28.791  23.447  1.00  0.00    -0.051 C 
ATOM     24  H   UNL     1     -48.872  29.740  25.084  1.00  0.00     0.029 H 
ATOM     25  H   UNL     1     -49.860  30.829  24.105  1.00  0.00     0.029 H 
ATOM     26  C   UNL     1     -49.631  28.795  21.956  1.00  0.00    -0.051 C 
ATOM     27  H   UNL     1     -47.991  29.798  20.925  1.00  0.00     0.029 H 
ATOM     28  H   UNL     1     -49.302  30.860  21.456  1.00  0.00     0.029 H 
ATOM     29  H   UNL     1     -49.660  27.841  23.899  1.00  0.00     0.027 H 
ATOM     30  H   UNL     1     -51.044  28.898  23.619  1.00  0.00     0.027 H 
ATOM     31  H   UNL     1     -50.530  28.875  21.337  1.00  0.00     0.027 H 
ATOM     32  H   UNL     1     -49.129  27.860  21.683  1.00  0.00     0.027 H 
BRANCH  20  33
ATOM     33  C   UNL     1     -46.892  29.192  23.350  1.00  0.00    -0.047 C 
ATOM     34  H   UNL     1     -45.911  29.682  23.352  1.00  0.00     0.025 H 
ATOM     35  H   UNL     1     -46.998  28.688  24.317  1.00  0.00     0.025 H 
ATOM     36  H   UNL     1     -46.877  28.407  22.586  1.00  0.00     0.025 H 
ENDBRANCH  20  33
ENDBRANCH  18  20
ENDBRANCH  15  18
ENDBRANCH   1  15
BRANCH   6  37
ATOM     37  C   UNL     1     -45.751  37.311  29.118  1.00  0.00     0.043 C 
ATOM     38  H   UNL     1     -46.506  37.820  29.728  1.00  0.00     0.054 H 
ATOM     39  H   UNL     1     -45.061  36.810  29.807  1.00  0.00     0.054 H 
BRANCH  37  40
ATOM     40  N   UNL     1     -45.061  38.320  28.356  1.00  0.00    -0.347 N 
ATOM     41  C   UNL     1     -45.625  39.535  28.050  1.00  0.00     0.270 C 
ATOM     42  H   UNL     1     -44.054  38.258  28.247  1.00  0.00     0.164 HD
ATOM     43  O   UNL     1     -46.797  39.828  28.254  1.00  0.00    -0.268 OA
BRANCH  41  44
ATOM     44  C   UNL     1     -44.628  40.492  27.442  1.00  0.00     0.136 A 
ATOM     45  C   UNL     1     -43.499  40.688  28.126  1.00  0.00     0.035 A 
ATOM     46  N   UNL     1     -44.932  41.090  26.239  1.00  0.00    -0.225 NA
ATOM     47  C   UNL     1     -42.497  41.604  27.568  1.00  0.00     0.258 A 
ATOM     48  H   UNL     1     -43.271  40.210  29.070  1.00  0.00     0.071 H 
ATOM     49  C   UNL     1     -44.042  41.897  25.749  1.00  0.00     0.140 A 
ATOM     50  O   UNL     1     -41.455  41.791  28.193  1.00  0.00    -0.269 OA
ATOM     51  N   UNL     1     -42.826  42.191  26.354  1.00  0.00    -0.268 N 
ATOM     52  C   UNL     1     -44.326  42.565  24.446  1.00  0.00    -0.019 A 
ATOM     53  C   UNL     1     -41.926  43.070  25.763  1.00  0.00     0.014 A 
ATOM     54  C   UNL     1     -43.428  43.404  23.915  1.00  0.00    -0.057 A 
ATOM     55  H   UNL     1     -45.269  42.342  23.965  1.00  0.00     0.066 H 
ATOM     56  C   UNL     1     -42.187  43.667  24.593  1.00  0.00    -0.045 A 
ATOM     57  H   UNL     1     -40.993  43.255  26.292  1.00  0.00     0.082 H 
ATOM     58  H   UNL     1     -43.615  43.898  22.968  1.00  0.00     0.062 H 
ATOM     59  H   UNL     1     -41.477  44.352  24.140  1.00  0.00     0.064 H 
ENDBRANCH  41  44
ENDBRANCH  37  40
ENDBRANCH   6  37
TORSDOF 7
ENDMDL
MODEL 3
REMARK VINA RESULT:     -10.2      2.628      3.860
REMARK SMILES CC1(NCc2cc3ccc(CNC(=O)c4cc(=O)n5ccccc5n4)cc3[nH]2)CCCC1
REMARK SMILES IDX 5 1 6 2 7 3 8 4 9 5 10 6 26 7 27 8 28 9 4 15 3 18 2 20 29 21
REMARK SMILES IDX 32 22 30 23 31 26 1 33 11 37 12 40 13 41 14 43 15 44 16 45
REMARK SMILES IDX 25 46 17 47 24 49 18 50 19 51 23 52 20 53 22 54 21 56
REMARK H PARENT 6 10 8 11 9 12 26 13 28 14 4 16 4 17 3 19 29 24 29 25 32 27
REMARK H PARENT 32 28 30 29 30 30 31 31 31 32 1 34 1 35 1 36 11 38 11 39 12 42
REMARK H PARENT 16 48 23 55 20 57 22 58 21 59
REMARK Flexibility Score: inf
ROOT
ATOM      1  C   UNL     1     -47.322  32.185  25.473  1.00  0.00     0.030 A 
ATOM      2  C   UNL     1     -48.262  33.198  25.499  1.00  0.00    -0.032 A 
ATOM      3  C   UNL     1     -47.885  34.128  26.506  1.00  0.00    -0.000 A 
ATOM      4  C   UNL     1     -48.432  35.334  26.981  1.00  0.00    -0.052 A 
ATOM      5  C   UNL     1     -47.785  36.021  28.015  1.00  0.00    -0.057 A 
ATOM      6  C   UNL     1     -46.607  35.524  28.589  1.00  0.00    -0.027 A 
ATOM      7  C   UNL     1     -46.048  34.324  28.116  1.00  0.00    -0.033 A 
ATOM      8  C   UNL     1     -46.709  33.653  27.080  1.00  0.00     0.046 A 
ATOM      9  N   UNL     1     -46.388  32.479  26.438  1.00  0.00    -0.357 N 
ATOM     10  H   UNL     1     -49.126  33.262  24.850  1.00  0.00     0.065 H 
ATOM     11  H   UNL     1     -49.345  35.729  26.547  1.00  0.00     0.063 H 
ATOM     12  H   UNL     1     -48.214  36.956  28.370  1.00  0.00     0.063 H 
ATOM     13  H   UNL     1     -45.126  33.935  28.539  1.00  0.00     0.065 H 
ATOM     14  H   UNL     1     -45.573  31.920  26.652  1.00  0.00     0.166 HD
ENDROOT
BRANCH   1  15
ATOM     15  C   UNL     1     -47.227  30.965  24.623  1.00  0.00     0.036 C 
ATOM     16  H   UNL     1     -48.086  30.953  23.941  1.00  0.00     0.049 H 
ATOM     17  H   UNL     1     -47.288  30.072  25.254  1.00  0.00     0.049 H 
BRANCH  15  18
ATOM     18  N   UNL     1     -45.975  31.006  23.879  1.00  0.00    -0.306 NA
ATOM     19  H   UNL     1     -45.323  30.348  24.305  1.00  0.00     0.123 HD
BRANCH  18  20
ATOM     20  C   UNL     1     -46.088  30.739  22.441  1.00  0.00     0.016 C 
ATOM     21  C   UNL     1     -47.572  30.533  22.083  1.00  0.00    -0.035 C 
ATOM     22  C   UNL     1     -45.741  31.951  21.559  1.00  0.00    -0.035 C 
ATOM     23  C   UNL     1     -47.666  30.811  20.584  1.00  0.00    -0.051 C 
ATOM     24  H   UNL     1     -47.941  29.533  22.337  1.00  0.00     0.029 H 
ATOM     25  H   UNL     1     -48.207  31.258  22.610  1.00  0.00     0.029 H 
ATOM     26  C   UNL     1     -46.474  31.705  20.243  1.00  0.00    -0.051 C 
ATOM     27  H   UNL     1     -44.665  32.079  21.404  1.00  0.00     0.029 H 
ATOM     28  H   UNL     1     -46.122  32.878  22.010  1.00  0.00     0.029 H 
ATOM     29  H   UNL     1     -47.612  29.878  20.011  1.00  0.00     0.027 H 
ATOM     30  H   UNL     1     -48.617  31.292  20.331  1.00  0.00     0.027 H 
ATOM     31  H   UNL     1     -46.791  32.647  19.783  1.00  0.00     0.027 H 
ATOM     32  H   UNL     1     -45.818  31.197  19.527  1.00  0.00     0.027 H 
BRANCH  20  33
ATOM     33  C   UNL     1     -45.269  29.494  22.048  1.00  0.00    -0.047 C 
ATOM     34  H   UNL     1     -45.824  28.574  22.270  1.00  0.00     0.025 H 
ATOM     35  H   UNL     1     -45.032  29.473  20.979  1.00  0.00     0.025 H 
ATOM     36  H   UNL     1     -44.314  29.452  22.583  1.00  0.00     0.025 H 
ENDBRANCH  20  33
ENDBRANCH  18  20
ENDBRANCH  15  18
ENDBRANCH   1  15
BRANCH   6  37
ATOM     37  C   UNL     1     -45.908  36.290  29.685  1.00  0.00     0.043 C 
ATOM     38  H   UNL     1     -46.607  36.522  30.496  1.00  0.00     0.054 H 
ATOM     39  H   UNL     1     -45.101  35.684  30.114  1.00  0.00     0.054 H 
BRANCH  37  40
ATOM     40  N   UNL     1     -45.393  37.540  29.189  1.00  0.00    -0.347 N 
ATOM     41  C   UNL     1     -44.540  38.333  29.917  1.00  0.00     0.270 C 
ATOM     42  H   UNL     1     -45.446  37.739  28.195  1.00  0.00     0.164 HD
ATOM     43  O   UNL     1     -44.249  38.146  31.093  1.00  0.00    -0.268 OA
BRANCH  41  44
ATOM     44  C   UNL     1     -43.974  39.469  29.097  1.00  0.00     0.136 A 
ATOM     45  C   UNL     1     -42.861  40.039  29.562  1.00  0.00     0.035 A 
ATOM     46  N   UNL     1     -44.621  39.837  27.939  1.00  0.00    -0.225 NA
ATOM     47  C   UNL     1     -42.270  41.141  28.793  1.00  0.00     0.258 A 
ATOM     48  H   UNL     1     -42.360  39.739  30.473  1.00  0.00     0.071 H 
ATOM     49  C   UNL     1     -44.094  40.809  27.261  1.00  0.00     0.140 A 
ATOM     50  O   UNL     1     -41.245  41.673  29.215  1.00  0.00    -0.269 OA
ATOM     51  N   UNL     1     -42.939  41.491  27.629  1.00  0.00    -0.268 N 
ATOM     52  C   UNL     1     -44.758  41.240  25.998  1.00  0.00    -0.019 A 
ATOM     53  C   UNL     1     -42.439  42.525  26.846  1.00  0.00     0.014 A 
ATOM     54  C   UNL     1     -44.238  42.242  25.277  1.00  0.00    -0.057 A 
ATOM     55  H   UNL     1     -45.656  40.715  25.701  1.00  0.00     0.066 H 
ATOM     56  C   UNL     1     -43.041  42.908  25.713  1.00  0.00    -0.045 A 
ATOM     57  H   UNL     1     -41.532  43.015  27.194  1.00  0.00     0.082 H 
ATOM     58  H   UNL     1     -44.706  42.569  24.355  1.00  0.00     0.062 H 
ATOM     59  H   UNL     1     -42.641  43.717  25.110  1.00  0.00     0.064 H 
ENDBRANCH  41  44
ENDBRANCH  37  40
ENDBRANCH   6  37
TORSDOF 7
ENDMDL
MODEL 4
REMARK VINA RESULT:     -10.1      1.718      2.370
REMARK SMILES CC1(NCc2cc3ccc(CNC(=O)c4cc(=O)n5ccccc5n4)cc3[nH]2)CCCC1
REMARK SMILES IDX 5 1 6 2 7 3 8 4 9 5 10 6 26 7 27 8 28 9 4 15 3 18 2 20 29 21
REMARK SMILES IDX 32 22 30 23 31 26 1 33 11 37 12 40 13 41 14 43 15 44 16 45
REMARK SMILES IDX 25 46 17 47 24 49 18 50 19 51 23 52 20 53 22 54 21 56
REMARK H PARENT 6 10 8 11 9 12 26 13 28 14 4 16 4 17 3 19 29 24 29 25 32 27
REMARK H PARENT 32 28 30 29 30 30 31 31 31 32 1 34 1 35 1 36 11 38 11 39 12 42
REMARK H PARENT 16 48 23 55 20 57 22 58 21 59
REMARK Flexibility Score: inf
ROOT
ATOM      1  C   UNL     1     -47.177  31.311  24.229  1.00  0.00     0.030 A 
ATOM      2  C   UNL     1     -48.283  32.011  24.672  1.00  0.00    -0.032 A 
ATOM      3  C   UNL     1     -47.840  33.011  25.580  1.00  0.00    -0.000 A 
ATOM      4  C   UNL     1     -48.488  34.010  26.331  1.00  0.00    -0.052 A 
ATOM      5  C   UNL     1     -47.728  34.855  27.149  1.00  0.00    -0.057 A 
ATOM      6  C   UNL     1     -46.336  34.718  27.239  1.00  0.00    -0.027 A 
ATOM      7  C   UNL     1     -45.680  33.728  26.487  1.00  0.00    -0.033 A 
ATOM      8  C   UNL     1     -46.456  32.894  25.674  1.00  0.00     0.046 A 
ATOM      9  N   UNL     1     -46.078  31.862  24.846  1.00  0.00    -0.357 N 
ATOM     10  H   UNL     1     -49.303  31.824  24.363  1.00  0.00     0.065 H 
ATOM     11  H   UNL     1     -49.565  34.126  26.273  1.00  0.00     0.063 H 
ATOM     12  H   UNL     1     -48.240  35.628  27.720  1.00  0.00     0.063 H 
ATOM     13  H   UNL     1     -44.599  33.621  26.533  1.00  0.00     0.065 H 
ATOM     14  H   UNL     1     -45.122  31.560  24.716  1.00  0.00     0.166 HD
ENDROOT
BRANCH   1  15
ATOM     15  C   UNL     1     -47.062  30.169  23.279  1.00  0.00     0.036 C 
ATOM     16  H   UNL     1     -46.289  30.412  22.541  1.00  0.00     0.049 H 
ATOM     17  H   UNL     1     -48.009  30.041  22.743  1.00  0.00     0.049 H 
BRANCH  15  18
ATOM     18  N   UNL     1     -46.708  28.969  24.026  1.00  0.00    -0.306 NA
ATOM     19  H   UNL     1     -46.232  29.250  24.883  1.00  0.00     0.123 HD
BRANCH  18  20
ATOM     20  C   UNL     1     -47.825  28.072  24.344  1.00  0.00     0.016 C 
ATOM     21  C   UNL     1     -47.264  26.735  24.863  1.00  0.00    -0.035 C 
ATOM     22  C   UNL     1     -48.656  28.528  25.555  1.00  0.00    -0.035 C 
ATOM     23  C   UNL     1     -48.403  26.104  25.661  1.00  0.00    -0.051 C 
ATOM     24  H   UNL     1     -46.912  26.076  24.062  1.00  0.00     0.029 H 
ATOM     25  H   UNL     1     -46.416  26.902  25.542  1.00  0.00     0.029 H 
ATOM     26  C   UNL     1     -49.311  27.256  26.087  1.00  0.00    -0.051 C 
ATOM     27  H   UNL     1     -49.400  29.291  25.306  1.00  0.00     0.029 H 
ATOM     28  H   UNL     1     -48.005  28.945  26.336  1.00  0.00     0.029 H 
ATOM     29  H   UNL     1     -48.962  25.392  25.043  1.00  0.00     0.027 H 
ATOM     30  H   UNL     1     -48.019  25.551  26.526  1.00  0.00     0.027 H 
ATOM     31  H   UNL     1     -49.434  27.297  27.174  1.00  0.00     0.027 H 
ATOM     32  H   UNL     1     -50.308  27.127  25.651  1.00  0.00     0.027 H 
BRANCH  20  33
ATOM     33  C   UNL     1     -48.706  27.833  23.103  1.00  0.00    -0.047 C 
ATOM     34  H   UNL     1     -49.731  27.573  23.395  1.00  0.00     0.025 H 
ATOM     35  H   UNL     1     -48.772  28.719  22.463  1.00  0.00     0.025 H 
ATOM     36  H   UNL     1     -48.316  27.021  22.479  1.00  0.00     0.025 H 
ENDBRANCH  20  33
ENDBRANCH  18  20
ENDBRANCH  15  18
ENDBRANCH   1  15
BRANCH   6  37
ATOM     37  C   UNL     1     -45.530  35.653  28.105  1.00  0.00     0.043 C 
ATOM     38  H   UNL     1     -45.859  35.588  29.148  1.00  0.00     0.054 H 
ATOM     39  H   UNL     1     -44.470  35.373  28.080  1.00  0.00     0.054 H 
BRANCH  37  40
ATOM     40  N   UNL     1     -45.702  37.020  27.684  1.00  0.00    -0.347 N 
ATOM     41  C   UNL     1     -45.209  38.085  28.397  1.00  0.00     0.270 C 
ATOM     42  H   UNL     1     -45.969  37.213  26.724  1.00  0.00     0.164 HD
ATOM     43  O   UNL     1     -44.714  38.004  29.515  1.00  0.00    -0.268 OA
BRANCH  41  44
ATOM     44  C   UNL     1     -45.326  39.386  27.638  1.00  0.00     0.136 A 
ATOM     45  C   UNL     1     -46.555  39.746  27.263  1.00  0.00     0.035 A 
ATOM     46  N   UNL     1     -44.183  40.113  27.389  1.00  0.00    -0.225 NA
ATOM     47  C   UNL     1     -46.718  41.007  26.531  1.00  0.00     0.258 A 
ATOM     48  H   UNL     1     -47.446  39.166  27.468  1.00  0.00     0.071 H 
ATOM     49  C   UNL     1     -44.333  41.229  26.744  1.00  0.00     0.140 A 
ATOM     50  O   UNL     1     -47.847  41.346  26.181  1.00  0.00    -0.269 OA
ATOM     51  N   UNL     1     -45.553  41.723  26.295  1.00  0.00    -0.268 N 
ATOM     52  C   UNL     1     -43.124  42.052  26.454  1.00  0.00    -0.019 A 
ATOM     53  C   UNL     1     -45.627  42.929  25.609  1.00  0.00     0.014 A 
ATOM     54  C   UNL     1     -43.246  43.208  25.790  1.00  0.00    -0.057 A 
ATOM     55  H   UNL     1     -42.170  41.678  26.801  1.00  0.00     0.066 H 
ATOM     56  C   UNL     1     -44.537  43.663  25.351  1.00  0.00    -0.045 A 
ATOM     57  H   UNL     1     -46.614  43.255  25.286  1.00  0.00     0.082 H 
ATOM     58  H   UNL     1     -42.378  43.821  25.571  1.00  0.00     0.062 H 
ATOM     59  H   UNL     1     -44.607  44.604  24.814  1.00  0.00     0.064 H 
ENDBRANCH  41  44
ENDBRANCH  37  40
ENDBRANCH   6  37
TORSDOF 7
ENDMDL
MODEL 5
REMARK VINA RESULT:      -9.9      1.602      2.105
REMARK SMILES CC1(NCc2cc3ccc(CNC(=O)c4cc(=O)n5ccccc5n4)cc3[nH]2)CCCC1
REMARK SMILES IDX 5 1 6 2 7 3 8 4 9 5 10 6 26 7 27 8 28 9 4 15 3 18 2 20 29 21
REMARK SMILES IDX 32 22 30 23 31 26 1 33 11 37 12 40 13 41 14 43 15 44 16 45
REMARK SMILES IDX 25 46 17 47 24 49 18 50 19 51 23 52 20 53 22 54 21 56
REMARK H PARENT 6 10 8 11 9 12 26 13 28 14 4 16 4 17 3 19 29 24 29 25 32 27
REMARK H PARENT 32 28 30 29 30 30 31 31 31 32 1 34 1 35 1 36 11 38 11 39 12 42
REMARK H PARENT 16 48 23 55 20 57 22 58 21 59
REMARK Flexibility Score: inf
ROOT
ATOM      1  C   UNL     1     -47.577  30.778  24.598  1.00  0.00     0.030 A 
ATOM      2  C   UNL     1     -47.243  31.983  24.009  1.00  0.00    -0.032 A 
ATOM      3  C   UNL     1     -46.937  32.912  25.041  1.00  0.00    -0.000 A 
ATOM      4  C   UNL     1     -46.536  34.260  25.059  1.00  0.00    -0.052 A 
ATOM      5  C   UNL     1     -46.308  34.893  26.287  1.00  0.00    -0.057 A 
ATOM      6  C   UNL     1     -46.483  34.208  27.497  1.00  0.00    -0.027 A 
ATOM      7  C   UNL     1     -46.876  32.859  27.489  1.00  0.00    -0.033 A 
ATOM      8  C   UNL     1     -47.096  32.244  26.251  1.00  0.00     0.046 A 
ATOM      9  N   UNL     1     -47.481  30.955  25.958  1.00  0.00    -0.357 N 
ATOM     10  H   UNL     1     -47.215  32.168  22.943  1.00  0.00     0.065 H 
ATOM     11  H   UNL     1     -46.399  34.803  24.129  1.00  0.00     0.063 H 
ATOM     12  H   UNL     1     -45.992  35.934  26.288  1.00  0.00     0.063 H 
ATOM     13  H   UNL     1     -46.998  32.310  28.420  1.00  0.00     0.065 H 
ATOM     14  H   UNL     1     -47.662  30.245  26.654  1.00  0.00     0.166 HD
ENDROOT
BRANCH   1  15
ATOM     15  C   UNL     1     -47.980  29.476  23.994  1.00  0.00     0.036 C 
ATOM     16  H   UNL     1     -47.092  28.836  23.935  1.00  0.00     0.049 H 
ATOM     17  H   UNL     1     -48.343  29.642  22.975  1.00  0.00     0.049 H 
BRANCH  15  18
ATOM     18  N   UNL     1     -49.004  28.867  24.832  1.00  0.00    -0.306 NA
ATOM     19  H   UNL     1     -49.889  28.883  24.326  1.00  0.00     0.123 HD
BRANCH  18  20
ATOM     20  C   UNL     1     -48.714  27.503  25.290  1.00  0.00     0.016 C 
ATOM     21  C   UNL     1     -47.370  27.047  24.690  1.00  0.00    -0.035 C 
ATOM     22  C   UNL     1     -48.407  27.409  26.794  1.00  0.00    -0.035 C 
ATOM     23  C   UNL     1     -46.884  25.922  25.602  1.00  0.00    -0.051 C 
ATOM     24  H   UNL     1     -47.453  26.721  23.647  1.00  0.00     0.029 H 
ATOM     25  H   UNL     1     -46.631  27.860  24.719  1.00  0.00     0.029 H 
ATOM     26  C   UNL     1     -47.570  26.142  26.949  1.00  0.00    -0.051 C 
ATOM     27  H   UNL     1     -49.307  27.377  27.417  1.00  0.00     0.029 H 
ATOM     28  H   UNL     1     -47.809  28.272  27.121  1.00  0.00     0.029 H 
ATOM     29  H   UNL     1     -47.162  24.943  25.193  1.00  0.00     0.027 H 
ATOM     30  H   UNL     1     -45.793  25.935  25.696  1.00  0.00     0.027 H 
ATOM     31  H   UNL     1     -46.844  26.243  27.763  1.00  0.00     0.027 H 
ATOM     32  H   UNL     1     -48.210  25.286  27.187  1.00  0.00     0.027 H 
BRANCH  20  33
ATOM     33  C   UNL     1     -49.837  26.534  24.874  1.00  0.00    -0.047 C 
ATOM     34  H   UNL     1     -50.316  26.865  23.944  1.00  0.00     0.025 H 
ATOM     35  H   UNL     1     -49.466  25.519  24.697  1.00  0.00     0.025 H 
ATOM     36  H   UNL     1     -50.611  26.457  25.645  1.00  0.00     0.025 H 
ENDBRANCH  20  33
ENDBRANCH  18  20
ENDBRANCH  15  18
ENDBRANCH   1  15
BRANCH   6  37
ATOM     37  C   UNL     1     -46.209  34.897  28.812  1.00  0.00     0.043 C 
ATOM     38  H   UNL     1     -47.131  34.984  29.398  1.00  0.00     0.054 H 
ATOM     39  H   UNL     1     -45.500  34.309  29.406  1.00  0.00     0.054 H 
BRANCH  37  40
ATOM     40  N   UNL     1     -45.707  36.230  28.598  1.00  0.00    -0.347 N 
ATOM     41  C   UNL     1     -45.563  37.141  29.615  1.00  0.00     0.270 C 
ATOM     42  H   UNL     1     -45.211  36.441  27.738  1.00  0.00     0.164 HD
ATOM     43  O   UNL     1     -45.974  36.979  30.758  1.00  0.00    -0.268 OA
BRANCH  41  44
ATOM     44  C   UNL     1     -44.815  38.378  29.175  1.00  0.00     0.136 A 
ATOM     45  C   UNL     1     -43.834  38.796  29.977  1.00  0.00     0.035 A 
ATOM     46  N   UNL     1     -45.177  38.985  27.993  1.00  0.00    -0.225 NA
ATOM     47  C   UNL     1     -43.075  39.989  29.585  1.00  0.00     0.258 A 
ATOM     48  H   UNL     1     -43.558  38.308  30.903  1.00  0.00     0.071 H 
ATOM     49  C   UNL     1     -44.501  40.038  27.649  1.00  0.00     0.140 A 
ATOM     50  O   UNL     1     -42.170  40.381  30.319  1.00  0.00    -0.269 OA
ATOM     51  N   UNL     1     -43.456  40.581  28.389  1.00  0.00    -0.268 N 
ATOM     52  C   UNL     1     -44.854  40.727  26.375  1.00  0.00    -0.019 A 
ATOM     53  C   UNL     1     -42.782  41.715  27.950  1.00  0.00     0.014 A 
ATOM     54  C   UNL     1     -44.176  41.816  25.993  1.00  0.00    -0.057 A 
ATOM     55  H   UNL     1     -45.665  40.311  25.790  1.00  0.00     0.066 H 
ATOM     56  C   UNL     1     -43.106  42.329  26.805  1.00  0.00    -0.045 A 
ATOM     57  H   UNL     1     -41.976  42.085  28.579  1.00  0.00     0.082 H 
ATOM     58  H   UNL     1     -44.417  42.330  25.069  1.00  0.00     0.062 H 
ATOM     59  H   UNL     1     -42.572  43.214  26.472  1.00  0.00     0.064 H 
ENDBRANCH  41  44
ENDBRANCH  37  40
ENDBRANCH   6  37
TORSDOF 7
ENDMDL
MODEL 6
REMARK VINA RESULT:      -9.9      1.987      3.283
REMARK SMILES CC1(NCc2cc3ccc(CNC(=O)c4cc(=O)n5ccccc5n4)cc3[nH]2)CCCC1
REMARK SMILES IDX 5 1 6 2 7 3 8 4 9 5 10 6 26 7 27 8 28 9 4 15 3 18 2 20 29 21
REMARK SMILES IDX 32 22 30 23 31 26 1 33 11 37 12 40 13 41 14 43 15 44 16 45
REMARK SMILES IDX 25 46 17 47 24 49 18 50 19 51 23 52 20 53 22 54 21 56
REMARK H PARENT 6 10 8 11 9 12 26 13 28 14 4 16 4 17 3 19 29 24 29 25 32 27
REMARK H PARENT 32 28 30 29 30 30 31 31 31 32 1 34 1 35 1 36 11 38 11 39 12 42
REMARK H PARENT 16 48 23 55 20 57 22 58 21 59
REMARK Flexibility Score: inf
ROOT
ATOM      1  C   UNL     1     -47.832  30.620  24.323  1.00  0.00     0.030 A 
ATOM      2  C   UNL     1     -46.740  31.459  24.211  1.00  0.00    -0.032 A 
ATOM      3  C   UNL     1     -47.011  32.641  24.953  1.00  0.00    -0.000 A 
ATOM      4  C   UNL     1     -46.293  33.823  25.210  1.00  0.00    -0.052 A 
ATOM      5  C   UNL     1     -46.871  34.818  26.009  1.00  0.00    -0.057 A 
ATOM      6  C   UNL     1     -48.155  34.659  26.549  1.00  0.00    -0.027 A 
ATOM      7  C   UNL     1     -48.876  33.478  26.304  1.00  0.00    -0.033 A 
ATOM      8  C   UNL     1     -48.281  32.495  25.504  1.00  0.00     0.046 A 
ATOM      9  N   UNL     1     -48.756  31.264  25.112  1.00  0.00    -0.357 N 
ATOM     10  H   UNL     1     -45.837  31.235  23.659  1.00  0.00     0.065 H 
ATOM     11  H   UNL     1     -45.299  33.961  24.797  1.00  0.00     0.063 H 
ATOM     12  H   UNL     1     -46.303  35.725  26.206  1.00  0.00     0.063 H 
ATOM     13  H   UNL     1     -49.866  33.333  26.730  1.00  0.00     0.065 H 
ATOM     14  H   UNL     1     -49.659  30.895  25.375  1.00  0.00     0.166 HD
ENDROOT
BRANCH   1  15
ATOM     15  C   UNL     1     -48.085  29.267  23.752  1.00  0.00     0.036 C 
ATOM     16  H   UNL     1     -47.752  28.518  24.480  1.00  0.00     0.049 H 
ATOM     17  H   UNL     1     -47.490  29.136  22.842  1.00  0.00     0.049 H 
BRANCH  15  18
ATOM     18  N   UNL     1     -49.510  29.128  23.481  1.00  0.00    -0.306 NA
ATOM     19  H   UNL     1     -50.020  29.756  24.103  1.00  0.00     0.123 HD
BRANCH  18  20
ATOM     20  C   UNL     1     -49.912  29.366  22.090  1.00  0.00     0.016 C 
ATOM     21  C   UNL     1     -50.442  30.807  21.959  1.00  0.00    -0.035 C 
ATOM     22  C   UNL     1     -48.732  29.399  21.104  1.00  0.00    -0.035 C 
ATOM     23  C   UNL     1     -50.313  31.149  20.476  1.00  0.00    -0.051 C 
ATOM     24  H   UNL     1     -51.471  30.921  22.317  1.00  0.00     0.029 H 
ATOM     25  H   UNL     1     -49.819  31.507  22.532  1.00  0.00     0.029 H 
ATOM     26  C   UNL     1     -49.228  30.227  19.921  1.00  0.00    -0.051 C 
ATOM     27  H   UNL     1     -48.403  28.404  20.790  1.00  0.00     0.029 H 
ATOM     28  H   UNL     1     -47.867  29.907  21.553  1.00  0.00     0.029 H 
ATOM     29  H   UNL     1     -51.260  30.974  19.954  1.00  0.00     0.027 H 
ATOM     30  H   UNL     1     -50.056  32.205  20.336  1.00  0.00     0.027 H 
ATOM     31  H   UNL     1     -48.411  30.791  19.460  1.00  0.00     0.027 H 
ATOM     32  H   UNL     1     -49.651  29.576  19.148  1.00  0.00     0.027 H 
BRANCH  20  33
ATOM     33  C   UNL     1     -50.994  28.360  21.653  1.00  0.00    -0.047 C 
ATOM     34  H   UNL     1     -51.343  28.578  20.636  1.00  0.00     0.025 H 
ATOM     35  H   UNL     1     -50.626  27.329  21.649  1.00  0.00     0.025 H 
ATOM     36  H   UNL     1     -51.862  28.383  22.321  1.00  0.00     0.025 H 
ENDBRANCH  20  33
ENDBRANCH  18  20
ENDBRANCH  15  18
ENDBRANCH   1  15
BRANCH   6  37
ATOM     37  C   UNL     1     -48.752  35.729  27.429  1.00  0.00     0.043 C 
ATOM     38  H   UNL     1     -49.637  36.166  26.952  1.00  0.00     0.054 H 
ATOM     39  H   UNL     1     -49.077  35.296  28.382  1.00  0.00     0.054 H 
BRANCH  37  40
ATOM     40  N   UNL     1     -47.811  36.796  27.651  1.00  0.00    -0.347 N 
ATOM     41  C   UNL     1     -46.942  36.810  28.715  1.00  0.00     0.270 C 
ATOM     42  H   UNL     1     -47.592  37.431  26.890  1.00  0.00     0.164 HD
ATOM     43  O   UNL     1     -46.974  36.018  29.649  1.00  0.00    -0.268 OA
BRANCH  41  44
ATOM     44  C   UNL     1     -45.916  37.913  28.602  1.00  0.00     0.136 A 
ATOM     45  C   UNL     1     -45.056  38.030  29.616  1.00  0.00     0.035 A 
ATOM     46  N   UNL     1     -45.922  38.711  27.480  1.00  0.00    -0.225 NA
ATOM     47  C   UNL     1     -44.036  39.083  29.545  1.00  0.00     0.258 A 
ATOM     48  H   UNL     1     -45.060  37.394  30.492  1.00  0.00     0.071 H 
ATOM     49  C   UNL     1     -45.016  39.638  27.421  1.00  0.00     0.140 A 
ATOM     50  O   UNL     1     -43.240  39.198  30.476  1.00  0.00    -0.269 OA
ATOM     51  N   UNL     1     -44.061  39.871  28.403  1.00  0.00    -0.268 N 
ATOM     52  C   UNL     1     -44.981  40.525  26.223  1.00  0.00    -0.019 A 
ATOM     53  C   UNL     1     -43.124  40.889  28.263  1.00  0.00     0.014 A 
ATOM     54  C   UNL     1     -44.059  41.491  26.132  1.00  0.00    -0.057 A 
ATOM     55  H   UNL     1     -45.720  40.351  25.450  1.00  0.00     0.066 H 
ATOM     56  C   UNL     1     -43.099  41.682  27.186  1.00  0.00    -0.045 A 
ATOM     57  H   UNL     1     -42.406  41.015  29.072  1.00  0.00     0.082 H 
ATOM     58  H   UNL     1     -44.017  42.146  25.268  1.00  0.00     0.062 H 
ATOM     59  H   UNL     1     -42.362  42.474  27.087  1.00  0.00     0.064 H 
ENDBRANCH  41  44
ENDBRANCH  37  40
ENDBRANCH   6  37
TORSDOF 7
ENDMDL
MODEL 7
REMARK VINA RESULT:      -9.8      1.750      2.633
REMARK SMILES CC1(NCc2cc3ccc(CNC(=O)c4cc(=O)n5ccccc5n4)cc3[nH]2)CCCC1
REMARK SMILES IDX 5 1 6 2 7 3 8 4 9 5 10 6 26 7 27 8 28 9 4 15 3 18 2 20 29 21
REMARK SMILES IDX 32 22 30 23 31 26 1 33 11 37 12 40 13 41 14 43 15 44 16 45
REMARK SMILES IDX 25 46 17 47 24 49 18 50 19 51 23 52 20 53 22 54 21 56
REMARK H PARENT 6 10 8 11 9 12 26 13 28 14 4 16 4 17 3 19 29 24 29 25 32 27
REMARK H PARENT 32 28 30 29 30 30 31 31 31 32 1 34 1 35 1 36 11 38 11 39 12 42
REMARK H PARENT 16 48 23 55 20 57 22 58 21 59
REMARK Flexibility Score: inf
ROOT
ATOM      1  C   UNL     1     -48.411  31.667  25.616  1.00  0.00     0.030 A 
ATOM      2  C   UNL     1     -47.095  32.081  25.535  1.00  0.00    -0.032 A 
ATOM      3  C   UNL     1     -47.025  33.428  25.984  1.00  0.00    -0.000 A 
ATOM      4  C   UNL     1     -45.981  34.359  26.132  1.00  0.00    -0.052 A 
ATOM      5  C   UNL     1     -46.267  35.640  26.620  1.00  0.00    -0.057 A 
ATOM      6  C   UNL     1     -47.576  36.012  26.954  1.00  0.00    -0.027 A 
ATOM      7  C   UNL     1     -48.625  35.086  26.817  1.00  0.00    -0.033 A 
ATOM      8  C   UNL     1     -48.318  33.810  26.330  1.00  0.00     0.046 A 
ATOM      9  N   UNL     1     -49.137  32.728  26.101  1.00  0.00    -0.357 N 
ATOM     10  H   UNL     1     -46.270  31.468  25.195  1.00  0.00     0.065 H 
ATOM     11  H   UNL     1     -44.962  34.085  25.875  1.00  0.00     0.063 H 
ATOM     12  H   UNL     1     -45.450  36.349  26.737  1.00  0.00     0.063 H 
ATOM     13  H   UNL     1     -49.642  35.355  27.089  1.00  0.00     0.065 H 
ATOM     14  H   UNL     1     -50.134  32.726  26.272  1.00  0.00     0.166 HD
ENDROOT
BRANCH   1  15
ATOM     15  C   UNL     1     -49.045  30.362  25.275  1.00  0.00     0.036 C 
ATOM     16  H   UNL     1     -49.830  30.546  24.531  1.00  0.00     0.049 H 
ATOM     17  H   UNL     1     -49.521  29.941  26.167  1.00  0.00     0.049 H 
BRANCH  15  18
ATOM     18  N   UNL     1     -48.026  29.468  24.743  1.00  0.00    -0.306 NA
ATOM     19  H   UNL     1     -47.132  29.702  25.175  1.00  0.00     0.123 HD
BRANCH  18  20
ATOM     20  C   UNL     1     -48.299  28.035  24.902  1.00  0.00     0.016 C 
ATOM     21  C   UNL     1     -48.777  27.772  26.343  1.00  0.00    -0.035 C 
ATOM     22  C   UNL     1     -49.517  27.547  24.099  1.00  0.00    -0.035 C 
ATOM     23  C   UNL     1     -49.540  26.450  26.278  1.00  0.00    -0.051 C 
ATOM     24  H   UNL     1     -47.956  27.735  27.068  1.00  0.00     0.029 H 
ATOM     25  H   UNL     1     -49.470  28.556  26.676  1.00  0.00     0.029 H 
ATOM     26  C   UNL     1     -49.996  26.295  24.828  1.00  0.00    -0.051 C 
ATOM     27  H   UNL     1     -49.287  27.339  23.049  1.00  0.00     0.029 H 
ATOM     28  H   UNL     1     -50.319  28.298  24.119  1.00  0.00     0.029 H 
ATOM     29  H   UNL     1     -48.890  25.613  26.560  1.00  0.00     0.027 H 
ATOM     30  H   UNL     1     -50.388  26.450  26.971  1.00  0.00     0.027 H 
ATOM     31  H   UNL     1     -51.083  26.183  24.754  1.00  0.00     0.027 H 
ATOM     32  H   UNL     1     -49.546  25.398  24.388  1.00  0.00     0.027 H 
BRANCH  20  33
ATOM     33  C   UNL     1     -47.042  27.199  24.597  1.00  0.00    -0.047 C 
ATOM     34  H   UNL     1     -47.297  26.140  24.470  1.00  0.00     0.025 H 
ATOM     35  H   UNL     1     -46.543  27.519  23.677  1.00  0.00     0.025 H 
ATOM     36  H   UNL     1     -46.300  27.275  25.400  1.00  0.00     0.025 H 
ENDBRANCH  20  33
ENDBRANCH  18  20
ENDBRANCH  15  18
ENDBRANCH   1  15
BRANCH   6  37
ATOM     37  C   UNL     1     -47.863  37.388  27.503  1.00  0.00     0.043 C 
ATOM     38  H   UNL     1     -48.787  37.787  27.070  1.00  0.00     0.054 H 
ATOM     39  H   UNL     1     -48.007  37.339  28.589  1.00  0.00     0.054 H 
BRANCH  37  40
ATOM     40  N   UNL     1     -46.802  38.304  27.173  1.00  0.00    -0.347 N 
ATOM     41  C   UNL     1     -47.010  39.651  27.003  1.00  0.00     0.270 C 
ATOM     42  H   UNL     1     -45.838  38.016  27.310  1.00  0.00     0.164 HD
ATOM     43  O   UNL     1     -48.112  40.185  26.963  1.00  0.00    -0.268 OA
BRANCH  41  44
ATOM     44  C   UNL     1     -45.715  40.420  26.884  1.00  0.00     0.136 A 
ATOM     45  C   UNL     1     -44.806  40.201  27.836  1.00  0.00     0.035 A 
ATOM     46  N   UNL     1     -45.549  41.278  25.821  1.00  0.00    -0.225 NA
ATOM     47  C   UNL     1     -43.528  40.920  27.757  1.00  0.00     0.258 A 
ATOM     48  H   UNL     1     -44.947  39.521  28.666  1.00  0.00     0.071 H 
ATOM     49  C   UNL     1     -44.418  41.909  25.753  1.00  0.00     0.140 A 
ATOM     50  O   UNL     1     -42.685  40.725  28.630  1.00  0.00    -0.269 OA
ATOM     51  N   UNL     1     -43.384  41.777  26.674  1.00  0.00    -0.268 N 
ATOM     52  C   UNL     1     -44.191  42.847  24.616  1.00  0.00    -0.019 A 
ATOM     53  C   UNL     1     -42.201  42.492  26.530  1.00  0.00     0.014 A 
ATOM     54  C   UNL     1     -43.034  43.514  24.520  1.00  0.00    -0.057 A 
ATOM     55  H   UNL     1     -44.988  42.957  23.892  1.00  0.00     0.066 H 
ATOM     56  C   UNL     1     -42.004  43.333  25.508  1.00  0.00    -0.045 A 
ATOM     57  H   UNL     1     -41.435  42.340  27.289  1.00  0.00     0.082 H 
ATOM     58  H   UNL     1     -42.850  44.199  23.700  1.00  0.00     0.062 H 
ATOM     59  H   UNL     1     -41.076  43.887  25.405  1.00  0.00     0.064 H 
ENDBRANCH  41  44
ENDBRANCH  37  40
ENDBRANCH   6  37
TORSDOF 7
ENDMDL
