MODEL 1
REMARK VINA RESULT:      -9.5      0.000      0.000
REMARK SMILES CC1(C)CCN(Cc2ccc(N3CC(=O)NC4(CCN(c5cc(NCc6ccccc6)ncn5)CC4)C3)cn2)CC1
REMARK SMILES IDX 12 1 13 2 14 3 15 4 16 5 17 6 18 7 19 8 20 9 35 10 36 11
REMARK SMILES IDX 37 12 11 26 8 27 9 28 39 29 10 30 38 32 7 35 6 38 2 39 4 40
REMARK SMILES IDX 41 41 5 42 40 45 1 52 3 56 21 60 22 61 34 62 23 63 33 65
REMARK SMILES IDX 32 66 24 68 25 70 26 73 27 74 31 75 28 76 30 78 29 80
REMARK H PARENT 13 13 13 14 16 15 18 16 18 17 19 18 19 19 35 20 35 21 36 22
REMARK H PARENT 36 23 37 24 37 25 9 31 10 33 38 34 7 36 7 37 4 43 4 44 41 46
REMARK H PARENT 41 47 5 48 5 49 40 50 40 51 1 53 1 54 1 55 3 57 3 58 3 59
REMARK H PARENT 22 64 33 67 24 69 25 71 25 72 27 77 31 79 28 81 30 82 29 83
REMARK Flexibility Score: inf
ROOT
ATOM      1  N   UNL     1     -46.411  35.394  27.055  1.00  0.00    -0.359 N 
ATOM      2  C   UNL     1     -45.872  34.525  28.140  1.00  0.00     0.097 C 
ATOM      3  C   UNL     1     -46.267  33.044  28.030  1.00  0.00     0.240 C 
ATOM      4  O   UNL     1     -45.682  32.164  28.662  1.00  0.00    -0.273 OA
ATOM      5  N   UNL     1     -47.360  32.715  27.269  1.00  0.00    -0.347 N 
ATOM      6  C   UNL     1     -47.860  33.574  26.186  1.00  0.00     0.061 C 
ATOM      7  C   UNL     1     -49.339  33.218  25.891  1.00  0.00    -0.010 C 
ATOM      8  C   UNL     1     -49.511  32.170  24.787  1.00  0.00     0.021 C 
ATOM      9  N   UNL     1     -48.356  31.276  24.789  1.00  0.00    -0.356 N 
ATOM     10  C   UNL     1     -47.090  31.918  24.394  1.00  0.00     0.021 C 
ATOM     11  C   UNL     1     -47.012  33.359  24.916  1.00  0.00    -0.010 C 
ATOM     12  C   UNL     1     -47.784  35.059  26.642  1.00  0.00     0.042 C 
ATOM     13  H   UNL     1     -44.777  34.544  28.131  1.00  0.00     0.060 H 
ATOM     14  H   UNL     1     -46.230  34.879  29.115  1.00  0.00     0.060 H 
ATOM     15  H   UNL     1     -47.494  31.713  27.164  1.00  0.00     0.164 HD
ATOM     16  H   UNL     1     -49.903  34.109  25.586  1.00  0.00     0.031 H 
ATOM     17  H   UNL     1     -49.821  32.859  26.810  1.00  0.00     0.031 H 
ATOM     18  H   UNL     1     -49.590  32.663  23.809  1.00  0.00     0.049 H 
ATOM     19  H   UNL     1     -50.464  31.657  24.952  1.00  0.00     0.049 H 
ATOM     20  H   UNL     1     -46.253  31.345  24.814  1.00  0.00     0.049 H 
ATOM     21  H   UNL     1     -46.966  31.944  23.304  1.00  0.00     0.049 H 
ATOM     22  H   UNL     1     -45.957  33.616  25.076  1.00  0.00     0.031 H 
ATOM     23  H   UNL     1     -47.371  34.036  24.128  1.00  0.00     0.031 H 
ATOM     24  H   UNL     1     -48.473  35.228  27.482  1.00  0.00     0.052 H 
ATOM     25  H   UNL     1     -48.099  35.699  25.806  1.00  0.00     0.052 H 
ENDROOT
BRANCH   1  26
ATOM     26  C   UNL     1     -46.084  36.751  27.212  1.00  0.00     0.056 A 
ATOM     27  C   UNL     1     -45.387  39.449  27.506  1.00  0.00     0.055 A 
ATOM     28  C   UNL     1     -44.744  38.486  28.275  1.00  0.00    -0.037 A 
ATOM     29  N   UNL     1     -46.349  39.116  26.613  1.00  0.00    -0.258 NA
ATOM     30  C   UNL     1     -45.094  37.143  28.119  1.00  0.00    -0.035 A 
ATOM     31  H   UNL     1     -43.971  38.764  28.984  1.00  0.00     0.064 H 
ATOM     32  C   UNL     1     -46.660  37.800  26.488  1.00  0.00     0.051 A 
ATOM     33  H   UNL     1     -44.553  36.401  28.701  1.00  0.00     0.065 H 
ATOM     34  H   UNL     1     -47.442  37.623  25.758  1.00  0.00     0.086 H 
BRANCH  27  35
ATOM     35  C   UNL     1     -45.022  40.920  27.637  1.00  0.00     0.041 C 
ATOM     36  H   UNL     1     -45.944  41.506  27.529  1.00  0.00     0.050 H 
ATOM     37  H   UNL     1     -44.694  41.117  28.667  1.00  0.00     0.050 H 
BRANCH  35  38
ATOM     38  N   UNL     1     -44.014  41.449  26.701  1.00  0.00    -0.297 NA
ATOM     39  C   UNL     1     -43.249  43.822  25.004  1.00  0.00    -0.033 C 
ATOM     40  C   UNL     1     -44.591  43.058  24.874  1.00  0.00    -0.035 C 
ATOM     41  C   UNL     1     -42.403  43.243  26.167  1.00  0.00    -0.035 C 
ATOM     42  C   UNL     1     -44.468  41.600  25.319  1.00  0.00    -0.001 C 
ATOM     43  H   UNL     1     -44.956  43.097  23.840  1.00  0.00     0.029 H 
ATOM     44  H   UNL     1     -45.366  43.543  25.483  1.00  0.00     0.029 H 
ATOM     45  C   UNL     1     -43.286  42.602  27.240  1.00  0.00    -0.001 C 
ATOM     46  H   UNL     1     -41.782  44.026  26.619  1.00  0.00     0.029 H 
ATOM     47  H   UNL     1     -41.703  42.483  25.793  1.00  0.00     0.029 H 
ATOM     48  H   UNL     1     -45.411  41.073  25.135  1.00  0.00     0.043 H 
ATOM     49  H   UNL     1     -43.735  41.098  24.674  1.00  0.00     0.043 H 
ATOM     50  H   UNL     1     -42.652  42.271  28.070  1.00  0.00     0.043 H 
ATOM     51  H   UNL     1     -43.959  43.370  27.634  1.00  0.00     0.043 H 
BRANCH  39  52
ATOM     52  C   UNL     1     -42.445  43.710  23.695  1.00  0.00    -0.060 C 
ATOM     53  H   UNL     1     -41.416  44.060  23.831  1.00  0.00     0.024 H 
ATOM     54  H   UNL     1     -42.401  42.671  23.349  1.00  0.00     0.024 H 
ATOM     55  H   UNL     1     -42.897  44.309  22.898  1.00  0.00     0.024 H 
ENDBRANCH  39  52
BRANCH  39  56
ATOM     56  C   UNL     1     -43.549  45.311  25.257  1.00  0.00    -0.060 C 
ATOM     57  H   UNL     1     -43.297  45.920  24.382  1.00  0.00     0.024 H 
ATOM     58  H   UNL     1     -44.611  45.467  25.477  1.00  0.00     0.024 H 
ATOM     59  H   UNL     1     -42.971  45.694  26.105  1.00  0.00     0.024 H 
ENDBRANCH  39  56
ENDBRANCH  35  38
ENDBRANCH  27  35
ENDBRANCH   1  26
BRANCH   9  60
ATOM     60  C   UNL     1     -48.550  30.002  24.228  1.00  0.00     0.134 A 
ATOM     61  C   UNL     1     -49.580  29.191  24.675  1.00  0.00     0.023 A 
ATOM     62  N   UNL     1     -47.692  29.554  23.298  1.00  0.00    -0.219 NA
ATOM     63  C   UNL     1     -49.725  27.940  24.103  1.00  0.00     0.131 A 
ATOM     64  H   UNL     1     -50.227  29.500  25.483  1.00  0.00     0.070 H 
ATOM     65  C   UNL     1     -47.897  28.318  22.822  1.00  0.00     0.120 A 
ATOM     66  N   UNL     1     -48.878  27.484  23.177  1.00  0.00    -0.219 NA
ATOM     67  H   UNL     1     -47.196  27.960  22.075  1.00  0.00     0.106 H 
BRANCH  63  68
ATOM     68  N   UNL     1     -50.727  27.052  24.491  1.00  0.00    -0.366 N 
ATOM     69  H   UNL     1     -51.598  27.549  24.307  1.00  0.00     0.162 HD
BRANCH  68  70
ATOM     70  C   UNL     1     -50.678  26.570  25.867  1.00  0.00     0.041 C 
ATOM     71  H   UNL     1     -51.068  27.365  26.516  1.00  0.00     0.054 H 
ATOM     72  H   UNL     1     -51.335  25.710  26.045  1.00  0.00     0.054 H 
BRANCH  70  73
ATOM     73  C   UNL     1     -49.264  26.249  26.291  1.00  0.00    -0.029 A 
ATOM     74  C   UNL     1     -48.465  27.231  26.898  1.00  0.00    -0.057 A 
ATOM     75  C   UNL     1     -48.716  24.980  26.056  1.00  0.00    -0.057 A 
ATOM     76  C   UNL     1     -47.154  26.942  27.277  1.00  0.00    -0.062 A 
ATOM     77  H   UNL     1     -48.860  28.229  27.076  1.00  0.00     0.063 H 
ATOM     78  C   UNL     1     -47.404  24.694  26.435  1.00  0.00    -0.062 A 
ATOM     79  H   UNL     1     -49.306  24.210  25.565  1.00  0.00     0.063 H 
ATOM     80  C   UNL     1     -46.624  25.673  27.047  1.00  0.00    -0.062 A 
ATOM     81  H   UNL     1     -46.542  27.708  27.746  1.00  0.00     0.062 H 
ATOM     82  H   UNL     1     -46.986  23.708  26.245  1.00  0.00     0.062 H 
ATOM     83  H   UNL     1     -45.600  25.450  27.337  1.00  0.00     0.062 H 
ENDBRANCH  70  73
ENDBRANCH  68  70
ENDBRANCH  63  68
ENDBRANCH   9  60
TORSDOF 9
ENDMDL
MODEL 2
REMARK VINA RESULT:      -9.4      3.453     14.058
REMARK SMILES CC1(C)CCN(Cc2ccc(N3CC(=O)NC4(CCN(c5cc(NCc6ccccc6)ncn5)CC4)C3)cn2)CC1
REMARK SMILES IDX 12 1 13 2 14 3 15 4 16 5 17 6 18 7 19 8 20 9 35 10 36 11
REMARK SMILES IDX 37 12 11 26 8 27 9 28 39 29 10 30 38 32 7 35 6 38 2 39 4 40
REMARK SMILES IDX 41 41 5 42 40 45 1 52 3 56 21 60 22 61 34 62 23 63 33 65
REMARK SMILES IDX 32 66 24 68 25 70 26 73 27 74 31 75 28 76 30 78 29 80
REMARK H PARENT 13 13 13 14 16 15 18 16 18 17 19 18 19 19 35 20 35 21 36 22
REMARK H PARENT 36 23 37 24 37 25 9 31 10 33 38 34 7 36 7 37 4 43 4 44 41 46
REMARK H PARENT 41 47 5 48 5 49 40 50 40 51 1 53 1 54 1 55 3 57 3 58 3 59
REMARK H PARENT 22 64 33 67 24 69 25 71 25 72 27 77 31 79 28 81 30 82 29 83
REMARK Flexibility Score: inf
ROOT
ATOM      1  N   UNL     1     -47.054  37.606  27.146  1.00  0.00    -0.359 N 
ATOM      2  C   UNL     1     -48.099  38.227  28.011  1.00  0.00     0.097 C 
ATOM      3  C   UNL     1     -47.842  39.699  28.368  1.00  0.00     0.240 C 
ATOM      4  O   UNL     1     -48.729  40.425  28.818  1.00  0.00    -0.273 OA
ATOM      5  N   UNL     1     -46.563  40.183  28.259  1.00  0.00    -0.347 N 
ATOM      6  C   UNL     1     -45.555  39.572  27.380  1.00  0.00     0.061 C 
ATOM      7  C   UNL     1     -44.141  39.987  27.857  1.00  0.00    -0.010 C 
ATOM      8  C   UNL     1     -43.603  41.245  27.166  1.00  0.00     0.021 C 
ATOM      9  N   UNL     1     -44.722  42.114  26.812  1.00  0.00    -0.356 N 
ATOM     10  C   UNL     1     -45.615  41.566  25.776  1.00  0.00     0.021 C 
ATOM     11  C   UNL     1     -45.773  40.047  25.928  1.00  0.00    -0.010 C 
ATOM     12  C   UNL     1     -45.679  38.025  27.467  1.00  0.00     0.042 C 
ATOM     13  H   UNL     1     -49.069  38.206  27.504  1.00  0.00     0.060 H 
ATOM     14  H   UNL     1     -48.174  37.677  28.957  1.00  0.00     0.060 H 
ATOM     15  H   UNL     1     -46.496  41.186  28.414  1.00  0.00     0.164 HD
ATOM     16  H   UNL     1     -43.416  39.182  27.680  1.00  0.00     0.031 H 
ATOM     17  H   UNL     1     -44.151  40.147  28.943  1.00  0.00     0.031 H 
ATOM     18  H   UNL     1     -43.053  40.968  26.257  1.00  0.00     0.049 H 
ATOM     19  H   UNL     1     -42.875  41.715  27.836  1.00  0.00     0.049 H 
ATOM     20  H   UNL     1     -46.602  42.035  25.871  1.00  0.00     0.049 H 
ATOM     21  H   UNL     1     -45.241  41.768  24.764  1.00  0.00     0.049 H 
ATOM     22  H   UNL     1     -46.760  39.759  25.545  1.00  0.00     0.031 H 
ATOM     23  H   UNL     1     -45.039  39.552  25.278  1.00  0.00     0.031 H 
ATOM     24  H   UNL     1     -45.419  37.686  28.480  1.00  0.00     0.052 H 
ATOM     25  H   UNL     1     -44.967  37.576  26.762  1.00  0.00     0.052 H 
ENDROOT
BRANCH   1  26
ATOM     26  C   UNL     1     -47.282  36.245  26.882  1.00  0.00     0.056 A 
ATOM     27  C   UNL     1     -47.709  33.519  26.393  1.00  0.00     0.055 A 
ATOM     28  C   UNL     1     -46.448  34.066  26.178  1.00  0.00    -0.037 A 
ATOM     29  N   UNL     1     -48.743  34.274  26.833  1.00  0.00    -0.258 NA
ATOM     30  C   UNL     1     -46.243  35.426  26.429  1.00  0.00    -0.035 A 
ATOM     31  H   UNL     1     -45.625  33.452  25.829  1.00  0.00     0.064 H 
ATOM     32  C   UNL     1     -48.504  35.590  27.068  1.00  0.00     0.051 A 
ATOM     33  H   UNL     1     -45.243  35.827  26.293  1.00  0.00     0.065 H 
ATOM     34  H   UNL     1     -49.385  36.120  27.412  1.00  0.00     0.086 H 
BRANCH  27  35
ATOM     35  C   UNL     1     -47.966  32.041  26.145  1.00  0.00     0.041 C 
ATOM     36  H   UNL     1     -47.055  31.491  26.419  1.00  0.00     0.050 H 
ATOM     37  H   UNL     1     -48.722  31.685  26.857  1.00  0.00     0.050 H 
BRANCH  35  38
ATOM     38  N   UNL     1     -48.363  31.646  24.782  1.00  0.00    -0.297 NA
ATOM     39  C   UNL     1     -48.561  29.333  22.857  1.00  0.00    -0.033 C 
ATOM     40  C   UNL     1     -47.246  29.782  23.543  1.00  0.00    -0.035 C 
ATOM     41  C   UNL     1     -49.754  30.187  23.356  1.00  0.00    -0.035 C 
ATOM     42  C   UNL     1     -47.261  31.270  23.898  1.00  0.00    -0.001 C 
ATOM     43  H   UNL     1     -46.384  29.567  22.899  1.00  0.00     0.029 H 
ATOM     44  H   UNL     1     -47.080  29.207  24.464  1.00  0.00     0.029 H 
ATOM     45  C   UNL     1     -49.507  30.729  24.765  1.00  0.00    -0.001 C 
ATOM     46  H   UNL     1     -50.681  29.599  23.344  1.00  0.00     0.029 H 
ATOM     47  H   UNL     1     -49.929  31.036  22.682  1.00  0.00     0.029 H 
ATOM     48  H   UNL     1     -46.287  31.567  24.303  1.00  0.00     0.043 H 
ATOM     49  H   UNL     1     -47.368  31.849  22.971  1.00  0.00     0.043 H 
ATOM     50  H   UNL     1     -50.402  31.266  25.101  1.00  0.00     0.043 H 
ATOM     51  H   UNL     1     -49.367  29.879  25.441  1.00  0.00     0.043 H 
BRANCH  39  52
ATOM     52  C   UNL     1     -48.441  29.483  21.329  1.00  0.00    -0.060 C 
ATOM     53  H   UNL     1     -47.404  29.669  21.029  1.00  0.00     0.024 H 
ATOM     54  H   UNL     1     -48.779  28.575  20.817  1.00  0.00     0.024 H 
ATOM     55  H   UNL     1     -49.047  30.319  20.962  1.00  0.00     0.024 H 
ENDBRANCH  39  52
BRANCH  39  56
ATOM     56  C   UNL     1     -48.803  27.846  23.176  1.00  0.00    -0.060 C 
ATOM     57  H   UNL     1     -47.918  27.389  23.633  1.00  0.00     0.024 H 
ATOM     58  H   UNL     1     -49.639  27.724  23.874  1.00  0.00     0.024 H 
ATOM     59  H   UNL     1     -49.037  27.278  22.269  1.00  0.00     0.024 H 
ENDBRANCH  39  56
ENDBRANCH  35  38
ENDBRANCH  27  35
ENDBRANCH   1  26
BRANCH   9  60
ATOM     60  C   UNL     1     -44.426  43.478  26.647  1.00  0.00     0.134 A 
ATOM     61  C   UNL     1     -44.154  44.273  27.749  1.00  0.00     0.023 A 
ATOM     62  N   UNL     1     -44.467  44.017  25.418  1.00  0.00    -0.219 NA
ATOM     63  C   UNL     1     -43.880  45.612  27.540  1.00  0.00     0.131 A 
ATOM     64  H   UNL     1     -44.201  43.876  28.752  1.00  0.00     0.070 H 
ATOM     65  C   UNL     1     -44.215  45.330  25.318  1.00  0.00     0.120 A 
ATOM     66  N   UNL     1     -43.919  46.160  26.322  1.00  0.00    -0.219 NA
ATOM     67  H   UNL     1     -44.256  45.760  24.323  1.00  0.00     0.106 H 
BRANCH  63  68
ATOM     68  N   UNL     1     -43.602  46.491  28.586  1.00  0.00    -0.366 N 
ATOM     69  H   UNL     1     -42.854  46.039  29.110  1.00  0.00     0.162 HD
BRANCH  68  70
ATOM     70  C   UNL     1     -44.716  46.845  29.458  1.00  0.00     0.041 C 
ATOM     71  H   UNL     1     -44.967  47.897  29.273  1.00  0.00     0.054 H 
ATOM     72  H   UNL     1     -45.633  46.289  29.232  1.00  0.00     0.054 H 
BRANCH  70  73
ATOM     73  C   UNL     1     -44.349  46.685  30.916  1.00  0.00    -0.029 A 
ATOM     74  C   UNL     1     -45.326  46.828  31.914  1.00  0.00    -0.057 A 
ATOM     75  C   UNL     1     -43.024  46.428  31.296  1.00  0.00    -0.057 A 
ATOM     76  C   UNL     1     -44.986  46.696  33.260  1.00  0.00    -0.062 A 
ATOM     77  H   UNL     1     -46.357  47.044  31.646  1.00  0.00     0.063 H 
ATOM     78  C   UNL     1     -42.687  46.298  32.644  1.00  0.00    -0.062 A 
ATOM     79  H   UNL     1     -42.244  46.338  30.544  1.00  0.00     0.063 H 
ATOM     80  C   UNL     1     -43.667  46.430  33.625  1.00  0.00    -0.062 A 
ATOM     81  H   UNL     1     -45.749  46.808  34.027  1.00  0.00     0.062 H 
ATOM     82  H   UNL     1     -41.656  46.103  32.930  1.00  0.00     0.062 H 
ATOM     83  H   UNL     1     -43.402  46.333  34.675  1.00  0.00     0.062 H 
ENDBRANCH  70  73
ENDBRANCH  68  70
ENDBRANCH  63  68
ENDBRANCH   9  60
TORSDOF 9
ENDMDL
MODEL 3
REMARK VINA RESULT:      -8.9      2.754     13.725
REMARK SMILES CC1(C)CCN(Cc2ccc(N3CC(=O)NC4(CCN(c5cc(NCc6ccccc6)ncn5)CC4)C3)cn2)CC1
REMARK SMILES IDX 12 1 13 2 14 3 15 4 16 5 17 6 18 7 19 8 20 9 35 10 36 11
REMARK SMILES IDX 37 12 11 26 8 27 9 28 39 29 10 30 38 32 7 35 6 38 2 39 4 40
REMARK SMILES IDX 41 41 5 42 40 45 1 52 3 56 21 60 22 61 34 62 23 63 33 65
REMARK SMILES IDX 32 66 24 68 25 70 26 73 27 74 31 75 28 76 30 78 29 80
REMARK H PARENT 13 13 13 14 16 15 18 16 18 17 19 18 19 19 35 20 35 21 36 22
REMARK H PARENT 36 23 37 24 37 25 9 31 10 33 38 34 7 36 7 37 4 43 4 44 41 46
REMARK H PARENT 41 47 5 48 5 49 40 50 40 51 1 53 1 54 1 55 3 57 3 58 3 59
REMARK H PARENT 22 64 33 67 24 69 25 71 25 72 27 77 31 79 28 81 30 82 29 83
REMARK Flexibility Score: inf
ROOT
ATOM      1  N   UNL     1     -46.952  37.439  27.180  1.00  0.00    -0.359 N 
ATOM      2  C   UNL     1     -48.076  38.021  27.969  1.00  0.00     0.097 C 
ATOM      3  C   UNL     1     -47.905  39.506  28.326  1.00  0.00     0.240 C 
ATOM      4  O   UNL     1     -48.849  40.196  28.712  1.00  0.00    -0.273 OA
ATOM      5  N   UNL     1     -46.644  40.045  28.294  1.00  0.00    -0.347 N 
ATOM      6  C   UNL     1     -45.557  39.471  27.487  1.00  0.00     0.061 C 
ATOM      7  C   UNL     1     -44.195  39.950  28.048  1.00  0.00    -0.010 C 
ATOM      8  C   UNL     1     -43.668  41.224  27.379  1.00  0.00     0.021 C 
ATOM      9  N   UNL     1     -44.798  42.041  26.946  1.00  0.00    -0.356 N 
ATOM     10  C   UNL     1     -45.599  41.446  25.861  1.00  0.00     0.021 C 
ATOM     11  C   UNL     1     -45.702  39.923  26.019  1.00  0.00    -0.010 C 
ATOM     12  C   UNL     1     -45.620  37.920  27.583  1.00  0.00     0.042 C 
ATOM     13  H   UNL     1     -49.010  37.955  27.402  1.00  0.00     0.060 H 
ATOM     14  H   UNL     1     -48.188  37.476  28.915  1.00  0.00     0.060 H 
ATOM     15  H   UNL     1     -46.630  41.050  28.442  1.00  0.00     0.164 HD
ATOM     16  H   UNL     1     -43.427  39.176  27.926  1.00  0.00     0.031 H 
ATOM     17  H   UNL     1     -44.281  40.119  29.130  1.00  0.00     0.031 H 
ATOM     18  H   UNL     1     -43.050  40.964  26.510  1.00  0.00     0.049 H 
ATOM     19  H   UNL     1     -43.005  41.731  28.089  1.00  0.00     0.049 H 
ATOM     20  H   UNL     1     -46.609  41.873  25.888  1.00  0.00     0.049 H 
ATOM     21  H   UNL     1     -45.171  41.657  24.872  1.00  0.00     0.049 H 
ATOM     22  H   UNL     1     -46.649  39.590  25.577  1.00  0.00     0.031 H 
ATOM     23  H   UNL     1     -44.907  39.455  25.422  1.00  0.00     0.031 H 
ATOM     24  H   UNL     1     -45.411  37.601  28.614  1.00  0.00     0.052 H 
ATOM     25  H   UNL     1     -44.845  37.497  26.929  1.00  0.00     0.052 H 
ENDROOT
BRANCH   1  26
ATOM     26  C   UNL     1     -47.105  36.068  26.917  1.00  0.00     0.056 A 
ATOM     27  C   UNL     1     -47.432  33.343  26.351  1.00  0.00     0.055 A 
ATOM     28  C   UNL     1     -48.550  34.132  26.599  1.00  0.00    -0.037 A 
ATOM     29  N   UNL     1     -46.180  33.859  26.378  1.00  0.00    -0.258 NA
ATOM     30  C   UNL     1     -48.379  35.491  26.876  1.00  0.00    -0.035 A 
ATOM     31  H   UNL     1     -49.548  33.708  26.571  1.00  0.00     0.064 H 
ATOM     32  C   UNL     1     -46.055  35.185  26.647  1.00  0.00     0.051 A 
ATOM     33  H   UNL     1     -49.265  36.099  27.029  1.00  0.00     0.065 H 
ATOM     34  H   UNL     1     -45.021  35.514  26.655  1.00  0.00     0.086 H 
BRANCH  27  35
ATOM     35  C   UNL     1     -47.581  31.864  26.031  1.00  0.00     0.041 C 
ATOM     36  H   UNL     1     -46.601  31.389  26.176  1.00  0.00     0.050 H 
ATOM     37  H   UNL     1     -48.223  31.396  26.790  1.00  0.00     0.050 H 
BRANCH  35  38
ATOM     38  N   UNL     1     -48.082  31.512  24.692  1.00  0.00    -0.297 NA
ATOM     39  C   UNL     1     -48.660  29.227  22.810  1.00  0.00    -0.033 C 
ATOM     40  C   UNL     1     -47.271  29.506  23.437  1.00  0.00    -0.035 C 
ATOM     41  C   UNL     1     -49.710  30.235  23.343  1.00  0.00    -0.035 C 
ATOM     42  C   UNL     1     -47.077  30.986  23.769  1.00  0.00    -0.001 C 
ATOM     43  H   UNL     1     -46.472  29.173  22.762  1.00  0.00     0.029 H 
ATOM     44  H   UNL     1     -47.144  28.922  24.359  1.00  0.00     0.029 H 
ATOM     45  C   UNL     1     -49.336  30.754  24.733  1.00  0.00    -0.001 C 
ATOM     46  H   UNL     1     -50.705  29.774  23.376  1.00  0.00     0.029 H 
ATOM     47  H   UNL     1     -49.800  31.094  22.664  1.00  0.00     0.029 H 
ATOM     48  H   UNL     1     -46.056  31.155  24.131  1.00  0.00     0.043 H 
ATOM     49  H   UNL     1     -47.145  31.565  22.839  1.00  0.00     0.043 H 
ATOM     50  H   UNL     1     -50.139  31.406  25.097  1.00  0.00     0.043 H 
ATOM     51  H   UNL     1     -49.281  29.899  25.415  1.00  0.00     0.043 H 
BRANCH  39  52
ATOM     52  C   UNL     1     -48.585  29.346  21.276  1.00  0.00    -0.060 C 
ATOM     53  H   UNL     1     -47.690  28.850  20.883  1.00  0.00     0.024 H 
ATOM     54  H   UNL     1     -49.458  28.882  20.803  1.00  0.00     0.024 H 
ATOM     55  H   UNL     1     -48.550  30.393  20.959  1.00  0.00     0.024 H 
ENDBRANCH  39  52
BRANCH  39  56
ATOM     56  C   UNL     1     -49.082  27.788  23.160  1.00  0.00    -0.060 C 
ATOM     57  H   UNL     1     -49.969  27.780  23.804  1.00  0.00     0.024 H 
ATOM     58  H   UNL     1     -49.323  27.217  22.256  1.00  0.00     0.024 H 
ATOM     59  H   UNL     1     -48.284  27.257  23.690  1.00  0.00     0.024 H 
ENDBRANCH  39  56
ENDBRANCH  35  38
ENDBRANCH  27  35
ENDBRANCH   1  26
BRANCH   9  60
ATOM     60  C   UNL     1     -44.551  43.416  26.785  1.00  0.00     0.134 A 
ATOM     61  C   UNL     1     -44.681  44.010  25.540  1.00  0.00     0.023 A 
ATOM     62  N   UNL     1     -44.129  44.136  27.837  1.00  0.00    -0.219 NA
ATOM     63  C   UNL     1     -44.415  45.362  25.427  1.00  0.00     0.131 A 
ATOM     64  H   UNL     1     -44.936  43.428  24.667  1.00  0.00     0.070 H 
ATOM     65  C   UNL     1     -43.869  45.434  27.624  1.00  0.00     0.120 A 
ATOM     66  N   UNL     1     -43.995  46.088  26.466  1.00  0.00    -0.219 NA
ATOM     67  H   UNL     1     -43.523  46.008  28.476  1.00  0.00     0.106 H 
BRANCH  63  68
ATOM     68  N   UNL     1     -44.513  46.045  24.216  1.00  0.00    -0.366 N 
ATOM     69  H   UNL     1     -44.983  46.919  24.450  1.00  0.00     0.162 HD
BRANCH  68  70
ATOM     70  C   UNL     1     -45.197  45.356  23.128  1.00  0.00     0.041 C 
ATOM     71  H   UNL     1     -45.430  44.338  23.468  1.00  0.00     0.054 H 
ATOM     72  H   UNL     1     -46.168  45.801  22.880  1.00  0.00     0.054 H 
BRANCH  70  73
ATOM     73  C   UNL     1     -44.328  45.265  21.896  1.00  0.00    -0.029 A 
ATOM     74  C   UNL     1     -44.901  45.327  20.616  1.00  0.00    -0.057 A 
ATOM     75  C   UNL     1     -42.942  45.083  22.009  1.00  0.00    -0.057 A 
ATOM     76  C   UNL     1     -44.101  45.229  19.477  1.00  0.00    -0.062 A 
ATOM     77  H   UNL     1     -45.975  45.451  20.500  1.00  0.00     0.063 H 
ATOM     78  C   UNL     1     -42.145  44.983  20.868  1.00  0.00    -0.062 A 
ATOM     79  H   UNL     1     -42.477  45.006  22.989  1.00  0.00     0.063 H 
ATOM     80  C   UNL     1     -42.724  45.058  19.603  1.00  0.00    -0.062 A 
ATOM     81  H   UNL     1     -44.553  45.278  18.489  1.00  0.00     0.062 H 
ATOM     82  H   UNL     1     -41.072  44.838  20.966  1.00  0.00     0.062 H 
ATOM     83  H   UNL     1     -42.102  44.975  18.715  1.00  0.00     0.062 H 
ENDBRANCH  70  73
ENDBRANCH  68  70
ENDBRANCH  63  68
ENDBRANCH   9  60
TORSDOF 9
ENDMDL
MODEL 4
REMARK VINA RESULT:      -8.9      2.882     13.698
REMARK SMILES CC1(C)CCN(Cc2ccc(N3CC(=O)NC4(CCN(c5cc(NCc6ccccc6)ncn5)CC4)C3)cn2)CC1
REMARK SMILES IDX 12 1 13 2 14 3 15 4 16 5 17 6 18 7 19 8 20 9 35 10 36 11
REMARK SMILES IDX 37 12 11 26 8 27 9 28 39 29 10 30 38 32 7 35 6 38 2 39 4 40
REMARK SMILES IDX 41 41 5 42 40 45 1 52 3 56 21 60 22 61 34 62 23 63 33 65
REMARK SMILES IDX 32 66 24 68 25 70 26 73 27 74 31 75 28 76 30 78 29 80
REMARK H PARENT 13 13 13 14 16 15 18 16 18 17 19 18 19 19 35 20 35 21 36 22
REMARK H PARENT 36 23 37 24 37 25 9 31 10 33 38 34 7 36 7 37 4 43 4 44 41 46
REMARK H PARENT 41 47 5 48 5 49 40 50 40 51 1 53 1 54 1 55 3 57 3 58 3 59
REMARK H PARENT 22 64 33 67 24 69 25 71 25 72 27 77 31 79 28 81 30 82 29 83
REMARK Flexibility Score: inf
ROOT
ATOM      1  N   UNL     1     -47.185  37.459  27.101  1.00  0.00    -0.359 N 
ATOM      2  C   UNL     1     -48.259  38.058  27.946  1.00  0.00     0.097 C 
ATOM      3  C   UNL     1     -48.023  39.525  28.336  1.00  0.00     0.240 C 
ATOM      4  O   UNL     1     -48.928  40.237  28.774  1.00  0.00    -0.273 OA
ATOM      5  N   UNL     1     -46.746  40.020  28.273  1.00  0.00    -0.347 N 
ATOM      6  C   UNL     1     -45.709  39.432  27.412  1.00  0.00     0.061 C 
ATOM      7  C   UNL     1     -44.311  39.848  27.937  1.00  0.00    -0.010 C 
ATOM      8  C   UNL     1     -43.764  41.122  27.283  1.00  0.00     0.021 C 
ATOM      9  N   UNL     1     -44.879  41.989  26.913  1.00  0.00    -0.356 N 
ATOM     10  C   UNL     1     -45.737  41.453  25.842  1.00  0.00     0.021 C 
ATOM     11  C   UNL     1     -45.889  39.930  25.963  1.00  0.00    -0.010 C 
ATOM     12  C   UNL     1     -45.824  37.882  27.469  1.00  0.00     0.042 C 
ATOM     13  H   UNL     1     -49.215  38.040  27.412  1.00  0.00     0.060 H 
ATOM     14  H   UNL     1     -48.357  37.491  28.880  1.00  0.00     0.060 H 
ATOM     15  H   UNL     1     -46.690  41.020  28.447  1.00  0.00     0.164 HD
ATOM     16  H   UNL     1     -43.576  39.052  27.766  1.00  0.00     0.031 H 
ATOM     17  H   UNL     1     -44.354  39.989  29.025  1.00  0.00     0.031 H 
ATOM     18  H   UNL     1     -43.186  40.865  26.386  1.00  0.00     0.049 H 
ATOM     19  H   UNL     1     -43.059  41.585  27.982  1.00  0.00     0.049 H 
ATOM     20  H   UNL     1     -46.730  41.913  25.917  1.00  0.00     0.049 H 
ATOM     21  H   UNL     1     -45.337  41.676  24.845  1.00  0.00     0.049 H 
ATOM     22  H   UNL     1     -46.862  39.642  25.546  1.00  0.00     0.031 H 
ATOM     23  H   UNL     1     -45.133  39.452  25.325  1.00  0.00     0.031 H 
ATOM     24  H   UNL     1     -45.590  37.528  28.483  1.00  0.00     0.052 H 
ATOM     25  H   UNL     1     -45.088  37.451  26.776  1.00  0.00     0.052 H 
ENDROOT
BRANCH   1  26
ATOM     26  C   UNL     1     -47.396  36.102  26.807  1.00  0.00     0.056 A 
ATOM     27  C   UNL     1     -47.783  33.383  26.254  1.00  0.00     0.055 A 
ATOM     28  C   UNL     1     -46.563  33.978  25.952  1.00  0.00    -0.037 A 
ATOM     29  N   UNL     1     -48.797  34.087  26.811  1.00  0.00    -0.258 NA
ATOM     30  C   UNL     1     -46.377  35.333  26.235  1.00  0.00    -0.035 A 
ATOM     31  H   UNL     1     -45.757  33.402  25.511  1.00  0.00     0.064 H 
ATOM     32  C   UNL     1     -48.577  35.401  27.073  1.00  0.00     0.051 A 
ATOM     33  H   UNL     1     -45.405  35.772  26.029  1.00  0.00     0.065 H 
ATOM     34  H   UNL     1     -49.440  35.891  27.512  1.00  0.00     0.086 H 
BRANCH  27  35
ATOM     35  C   UNL     1     -48.018  31.906  25.975  1.00  0.00     0.041 C 
ATOM     36  H   UNL     1     -47.094  31.366  26.224  1.00  0.00     0.050 H 
ATOM     37  H   UNL     1     -48.759  31.520  26.687  1.00  0.00     0.050 H 
BRANCH  35  38
ATOM     38  N   UNL     1     -48.425  31.537  24.608  1.00  0.00    -0.297 NA
ATOM     39  C   UNL     1     -48.809  29.233  22.700  1.00  0.00    -0.033 C 
ATOM     40  C   UNL     1     -47.470  29.560  23.409  1.00  0.00    -0.035 C 
ATOM     41  C   UNL     1     -49.923  30.204  23.167  1.00  0.00    -0.035 C 
ATOM     42  C   UNL     1     -47.348  31.046  23.749  1.00  0.00    -0.001 C 
ATOM     43  H   UNL     1     -46.621  29.255  22.784  1.00  0.00     0.029 H 
ATOM     44  H   UNL     1     -47.380  28.981  24.338  1.00  0.00     0.029 H 
ATOM     45  C   UNL     1     -49.652  30.736  24.576  1.00  0.00    -0.001 C 
ATOM     46  H   UNL     1     -50.902  29.709  23.141  1.00  0.00     0.029 H 
ATOM     47  H   UNL     1     -50.001  31.059  22.481  1.00  0.00     0.029 H 
ATOM     48  H   UNL     1     -46.357  31.251  24.172  1.00  0.00     0.043 H 
ATOM     49  H   UNL     1     -47.380  31.622  22.815  1.00  0.00     0.043 H 
ATOM     50  H   UNL     1     -50.497  31.360  24.888  1.00  0.00     0.043 H 
ATOM     51  H   UNL     1     -49.609  29.883  25.262  1.00  0.00     0.043 H 
BRANCH  39  52
ATOM     52  C   UNL     1     -48.645  29.353  21.174  1.00  0.00    -0.060 C 
ATOM     53  H   UNL     1     -48.981  30.333  20.815  1.00  0.00     0.024 H 
ATOM     54  H   UNL     1     -47.597  29.232  20.880  1.00  0.00     0.024 H 
ATOM     55  H   UNL     1     -49.230  28.591  20.649  1.00  0.00     0.024 H 
ENDBRANCH  39  52
BRANCH  39  56
ATOM     56  C   UNL     1     -49.201  27.780  23.028  1.00  0.00    -0.060 C 
ATOM     57  H   UNL     1     -49.001  27.115  22.180  1.00  0.00     0.024 H 
ATOM     58  H   UNL     1     -48.635  27.403  23.887  1.00  0.00     0.024 H 
ATOM     59  H   UNL     1     -50.267  27.700  23.267  1.00  0.00     0.024 H 
ENDBRANCH  39  56
ENDBRANCH  35  38
ENDBRANCH  27  35
ENDBRANCH   1  26
BRANCH   9  60
ATOM     60  C   UNL     1     -44.588  43.358  26.780  1.00  0.00     0.134 A 
ATOM     61  C   UNL     1     -44.586  43.955  25.530  1.00  0.00     0.023 A 
ATOM     62  N   UNL     1     -44.254  44.069  27.869  1.00  0.00    -0.219 NA
ATOM     63  C   UNL     1     -44.282  45.301  25.447  1.00  0.00     0.131 A 
ATOM     64  H   UNL     1     -44.768  43.380  24.635  1.00  0.00     0.070 H 
ATOM     65  C   UNL     1     -43.948  45.361  27.685  1.00  0.00     0.120 A 
ATOM     66  N   UNL     1     -43.948  46.018  26.523  1.00  0.00    -0.219 NA
ATOM     67  H   UNL     1     -43.673  45.927  28.568  1.00  0.00     0.106 H 
BRANCH  63  68
ATOM     68  N   UNL     1     -44.248  45.987  24.233  1.00  0.00    -0.366 N 
ATOM     69  H   UNL     1     -43.311  46.385  24.189  1.00  0.00     0.162 HD
BRANCH  68  70
ATOM     70  C   UNL     1     -45.265  47.013  24.032  1.00  0.00     0.041 C 
ATOM     71  H   UNL     1     -45.438  47.509  24.995  1.00  0.00     0.054 H 
ATOM     72  H   UNL     1     -44.942  47.812  23.354  1.00  0.00     0.054 H 
BRANCH  70  73
ATOM     73  C   UNL     1     -46.569  46.414  23.556  1.00  0.00    -0.029 A 
ATOM     74  C   UNL     1     -47.690  46.394  24.400  1.00  0.00    -0.057 A 
ATOM     75  C   UNL     1     -46.670  45.840  22.281  1.00  0.00    -0.057 A 
ATOM     76  C   UNL     1     -48.890  45.828  23.969  1.00  0.00    -0.062 A 
ATOM     77  H   UNL     1     -47.633  46.817  25.401  1.00  0.00     0.063 H 
ATOM     78  C   UNL     1     -47.871  45.274  21.853  1.00  0.00    -0.062 A 
ATOM     79  H   UNL     1     -45.809  45.821  21.617  1.00  0.00     0.063 H 
ATOM     80  C   UNL     1     -48.981  45.270  22.695  1.00  0.00    -0.062 A 
ATOM     81  H   UNL     1     -49.754  45.816  24.629  1.00  0.00     0.062 H 
ATOM     82  H   UNL     1     -47.939  44.827  20.864  1.00  0.00     0.062 H 
ATOM     83  H   UNL     1     -49.915  44.824  22.362  1.00  0.00     0.062 H 
ENDBRANCH  70  73
ENDBRANCH  68  70
ENDBRANCH  63  68
ENDBRANCH   9  60
TORSDOF 9
ENDMDL
MODEL 5
REMARK VINA RESULT:      -8.7      1.417      2.548
REMARK SMILES CC1(C)CCN(Cc2ccc(N3CC(=O)NC4(CCN(c5cc(NCc6ccccc6)ncn5)CC4)C3)cn2)CC1
REMARK SMILES IDX 12 1 13 2 14 3 15 4 16 5 17 6 18 7 19 8 20 9 35 10 36 11
REMARK SMILES IDX 37 12 11 26 8 27 9 28 39 29 10 30 38 32 7 35 6 38 2 39 4 40
REMARK SMILES IDX 41 41 5 42 40 45 1 52 3 56 21 60 22 61 34 62 23 63 33 65
REMARK SMILES IDX 32 66 24 68 25 70 26 73 27 74 31 75 28 76 30 78 29 80
REMARK H PARENT 13 13 13 14 16 15 18 16 18 17 19 18 19 19 35 20 35 21 36 22
REMARK H PARENT 36 23 37 24 37 25 9 31 10 33 38 34 7 36 7 37 4 43 4 44 41 46
REMARK H PARENT 41 47 5 48 5 49 40 50 40 51 1 53 1 54 1 55 3 57 3 58 3 59
REMARK H PARENT 22 64 33 67 24 69 25 71 25 72 27 77 31 79 28 81 30 82 29 83
REMARK Flexibility Score: inf
ROOT
ATOM      1  N   UNL     1     -46.326  35.858  27.064  1.00  0.00    -0.359 N 
ATOM      2  C   UNL     1     -45.770  35.119  28.234  1.00  0.00     0.097 C 
ATOM      3  C   UNL     1     -46.050  33.608  28.229  1.00  0.00     0.240 C 
ATOM      4  O   UNL     1     -45.428  32.827  28.951  1.00  0.00    -0.273 OA
ATOM      5  N   UNL     1     -47.083  33.138  27.459  1.00  0.00    -0.347 N 
ATOM      6  C   UNL     1     -47.599  33.869  26.293  1.00  0.00     0.061 C 
ATOM      7  C   UNL     1     -49.034  33.378  25.974  1.00  0.00    -0.010 C 
ATOM      8  C   UNL     1     -49.081  32.237  24.952  1.00  0.00     0.021 C 
ATOM      9  N   UNL     1     -47.864  31.439  25.069  1.00  0.00    -0.356 N 
ATOM     10  C   UNL     1     -46.633  32.143  24.669  1.00  0.00     0.021 C 
ATOM     11  C   UNL     1     -46.684  33.623  25.075  1.00  0.00    -0.010 C 
ATOM     12  C   UNL     1     -47.652  35.387  26.629  1.00  0.00     0.042 C 
ATOM     13  H   UNL     1     -44.680  35.222  28.263  1.00  0.00     0.060 H 
ATOM     14  H   UNL     1     -46.194  35.520  29.164  1.00  0.00     0.060 H 
ATOM     15  H   UNL     1     -47.137  32.123  27.430  1.00  0.00     0.164 HD
ATOM     16  H   UNL     1     -49.648  34.197  25.578  1.00  0.00     0.031 H 
ATOM     17  H   UNL     1     -49.526  33.056  26.901  1.00  0.00     0.031 H 
ATOM     18  H   UNL     1     -49.155  32.646  23.936  1.00  0.00     0.049 H 
ATOM     19  H   UNL     1     -50.000  31.667  25.124  1.00  0.00     0.049 H 
ATOM     20  H   UNL     1     -45.775  31.671  25.163  1.00  0.00     0.049 H 
ATOM     21  H   UNL     1     -46.466  32.095  23.585  1.00  0.00     0.049 H 
ATOM     22  H   UNL     1     -45.659  33.971  25.253  1.00  0.00     0.031 H 
ATOM     23  H   UNL     1     -47.059  34.206  24.223  1.00  0.00     0.031 H 
ATOM     24  H   UNL     1     -48.386  35.566  27.428  1.00  0.00     0.052 H 
ATOM     25  H   UNL     1     -47.979  35.933  25.734  1.00  0.00     0.052 H 
ENDROOT
BRANCH   1  26
ATOM     26  C   UNL     1     -46.107  37.244  27.122  1.00  0.00     0.056 A 
ATOM     27  C   UNL     1     -45.627  40.003  27.218  1.00  0.00     0.055 A 
ATOM     28  C   UNL     1     -44.856  39.145  27.994  1.00  0.00    -0.037 A 
ATOM     29  N   UNL     1     -46.612  39.539  26.413  1.00  0.00    -0.258 NA
ATOM     30  C   UNL     1     -45.099  37.770  27.937  1.00  0.00    -0.035 A 
ATOM     31  H   UNL     1     -44.066  39.527  28.632  1.00  0.00     0.064 H 
ATOM     32  C   UNL     1     -46.816  38.196  26.383  1.00  0.00     0.051 A 
ATOM     33  H   UNL     1     -44.461  37.111  28.520  1.00  0.00     0.065 H 
ATOM     34  H   UNL     1     -47.625  37.911  25.719  1.00  0.00     0.086 H 
BRANCH  27  35
ATOM     35  C   UNL     1     -45.382  41.504  27.243  1.00  0.00     0.041 C 
ATOM     36  H   UNL     1     -46.292  41.999  26.879  1.00  0.00     0.050 H 
ATOM     37  H   UNL     1     -45.291  41.835  28.286  1.00  0.00     0.050 H 
BRANCH  35  38
ATOM     38  N   UNL     1     -44.230  42.010  26.475  1.00  0.00    -0.297 NA
ATOM     39  C   UNL     1     -43.366  43.977  24.359  1.00  0.00    -0.033 C 
ATOM     40  C   UNL     1     -44.452  42.892  24.145  1.00  0.00    -0.035 C 
ATOM     41  C   UNL     1     -42.851  43.951  25.821  1.00  0.00    -0.035 C 
ATOM     42  C   UNL     1     -44.239  41.679  25.051  1.00  0.00    -0.001 C 
ATOM     43  H   UNL     1     -44.471  42.569  23.096  1.00  0.00     0.029 H 
ATOM     44  H   UNL     1     -45.449  43.306  24.347  1.00  0.00     0.029 H 
ATOM     45  C   UNL     1     -43.912  43.408  26.781  1.00  0.00    -0.001 C 
ATOM     46  H   UNL     1     -42.544  44.955  26.140  1.00  0.00     0.029 H 
ATOM     47  H   UNL     1     -41.954  43.323  25.902  1.00  0.00     0.029 H 
ATOM     48  H   UNL     1     -44.974  40.902  24.812  1.00  0.00     0.043 H 
ATOM     49  H   UNL     1     -43.267  41.229  24.810  1.00  0.00     0.043 H 
ATOM     50  H   UNL     1     -43.529  43.473  27.806  1.00  0.00     0.043 H 
ATOM     51  H   UNL     1     -44.792  44.056  26.722  1.00  0.00     0.043 H 
BRANCH  39  52
ATOM     52  C   UNL     1     -42.181  43.737  23.406  1.00  0.00    -0.060 C 
ATOM     53  H   UNL     1     -41.243  43.616  23.960  1.00  0.00     0.024 H 
ATOM     54  H   UNL     1     -42.334  42.832  22.807  1.00  0.00     0.024 H 
ATOM     55  H   UNL     1     -42.049  44.576  22.714  1.00  0.00     0.024 H 
ENDBRANCH  39  52
BRANCH  39  56
ATOM     56  C   UNL     1     -43.972  45.355  24.035  1.00  0.00    -0.060 C 
ATOM     57  H   UNL     1     -44.535  45.330  23.095  1.00  0.00     0.024 H 
ATOM     58  H   UNL     1     -44.658  45.680  24.826  1.00  0.00     0.024 H 
ATOM     59  H   UNL     1     -43.192  46.118  23.933  1.00  0.00     0.024 H 
ENDBRANCH  39  56
ENDBRANCH  35  38
ENDBRANCH  27  35
ENDBRANCH   1  26
BRANCH   9  60
ATOM     60  C   UNL     1     -47.939  30.113  24.605  1.00  0.00     0.134 A 
ATOM     61  C   UNL     1     -48.831  29.222  25.179  1.00  0.00     0.023 A 
ATOM     62  N   UNL     1     -47.098  29.703  23.642  1.00  0.00    -0.219 NA
ATOM     63  C   UNL     1     -48.861  27.925  24.700  1.00  0.00     0.131 A 
ATOM     64  H   UNL     1     -49.454  29.511  26.012  1.00  0.00     0.070 H 
ATOM     65  C   UNL     1     -47.183  28.421  23.263  1.00  0.00     0.120 A 
ATOM     66  N   UNL     1     -48.029  27.506  23.743  1.00  0.00    -0.219 NA
ATOM     67  H   UNL     1     -46.496  28.095  22.489  1.00  0.00     0.106 H 
BRANCH  63  68
ATOM     68  N   UNL     1     -49.719  26.956  25.218  1.00  0.00    -0.366 N 
ATOM     69  H   UNL     1     -49.435  26.090  24.761  1.00  0.00     0.162 HD
BRANCH  68  70
ATOM     70  C   UNL     1     -51.149  27.192  25.055  1.00  0.00     0.041 C 
ATOM     71  H   UNL     1     -51.671  26.247  25.257  1.00  0.00     0.054 H 
ATOM     72  H   UNL     1     -51.554  27.902  25.785  1.00  0.00     0.054 H 
BRANCH  70  73
ATOM     73  C   UNL     1     -51.480  27.635  23.649  1.00  0.00    -0.029 A 
ATOM     74  C   UNL     1     -51.987  28.922  23.410  1.00  0.00    -0.057 A 
ATOM     75  C   UNL     1     -51.320  26.758  22.566  1.00  0.00    -0.057 A 
ATOM     76  C   UNL     1     -52.308  29.327  22.115  1.00  0.00    -0.062 A 
ATOM     77  H   UNL     1     -52.137  29.615  24.235  1.00  0.00     0.063 H 
ATOM     78  C   UNL     1     -51.643  27.166  21.271  1.00  0.00    -0.062 A 
ATOM     79  H   UNL     1     -50.952  25.748  22.727  1.00  0.00     0.063 H 
ATOM     80  C   UNL     1     -52.135  28.450  21.045  1.00  0.00    -0.062 A 
ATOM     81  H   UNL     1     -52.701  30.326  21.939  1.00  0.00     0.062 H 
ATOM     82  H   UNL     1     -51.519  26.479  20.438  1.00  0.00     0.062 H 
ATOM     83  H   UNL     1     -52.390  28.765  20.036  1.00  0.00     0.062 H 
ENDBRANCH  70  73
ENDBRANCH  68  70
ENDBRANCH  63  68
ENDBRANCH   9  60
TORSDOF 9
ENDMDL
MODEL 6
REMARK VINA RESULT:      -8.5      2.326      3.898
REMARK SMILES CC1(C)CCN(Cc2ccc(N3CC(=O)NC4(CCN(c5cc(NCc6ccccc6)ncn5)CC4)C3)cn2)CC1
REMARK SMILES IDX 12 1 13 2 14 3 15 4 16 5 17 6 18 7 19 8 20 9 35 10 36 11
REMARK SMILES IDX 37 12 11 26 8 27 9 28 39 29 10 30 38 32 7 35 6 38 2 39 4 40
REMARK SMILES IDX 41 41 5 42 40 45 1 52 3 56 21 60 22 61 34 62 23 63 33 65
REMARK SMILES IDX 32 66 24 68 25 70 26 73 27 74 31 75 28 76 30 78 29 80
REMARK H PARENT 13 13 13 14 16 15 18 16 18 17 19 18 19 19 35 20 35 21 36 22
REMARK H PARENT 36 23 37 24 37 25 9 31 10 33 38 34 7 36 7 37 4 43 4 44 41 46
REMARK H PARENT 41 47 5 48 5 49 40 50 40 51 1 53 1 54 1 55 3 57 3 58 3 59
REMARK H PARENT 22 64 33 67 24 69 25 71 25 72 27 77 31 79 28 81 30 82 29 83
REMARK Flexibility Score: inf
ROOT
ATOM      1  N   UNL     1     -47.403  35.054  26.904  1.00  0.00    -0.359 N 
ATOM      2  C   UNL     1     -48.874  35.288  26.989  1.00  0.00     0.097 C 
ATOM      3  C   UNL     1     -49.738  34.128  26.468  1.00  0.00     0.240 C 
ATOM      4  O   UNL     1     -50.938  34.041  26.730  1.00  0.00    -0.273 OA
ATOM      5  N   UNL     1     -49.164  33.218  25.618  1.00  0.00    -0.347 N 
ATOM      6  C   UNL     1     -47.713  32.983  25.568  1.00  0.00     0.061 C 
ATOM      7  C   UNL     1     -47.346  32.332  24.211  1.00  0.00    -0.010 C 
ATOM      8  C   UNL     1     -47.330  30.800  24.249  1.00  0.00     0.021 C 
ATOM      9  N   UNL     1     -48.301  30.334  25.235  1.00  0.00    -0.356 N 
ATOM     10  C   UNL     1     -47.960  30.668  26.629  1.00  0.00     0.021 C 
ATOM     11  C   UNL     1     -47.296  32.048  26.722  1.00  0.00    -0.010 C 
ATOM     12  C   UNL     1     -46.975  34.347  25.685  1.00  0.00     0.042 C 
ATOM     13  H   UNL     1     -49.173  35.439  28.032  1.00  0.00     0.060 H 
ATOM     14  H   UNL     1     -49.145  36.176  26.404  1.00  0.00     0.060 H 
ATOM     15  H   UNL     1     -49.768  32.429  25.402  1.00  0.00     0.164 HD
ATOM     16  H   UNL     1     -46.354  32.661  23.875  1.00  0.00     0.031 H 
ATOM     17  H   UNL     1     -48.051  32.668  23.439  1.00  0.00     0.031 H 
ATOM     18  H   UNL     1     -46.328  30.441  24.522  1.00  0.00     0.049 H 
ATOM     19  H   UNL     1     -47.522  30.434  23.234  1.00  0.00     0.049 H 
ATOM     20  H   UNL     1     -48.879  30.677  27.228  1.00  0.00     0.049 H 
ATOM     21  H   UNL     1     -47.277  29.932  27.072  1.00  0.00     0.049 H 
ATOM     22  H   UNL     1     -47.525  32.480  27.705  1.00  0.00     0.031 H 
ATOM     23  H   UNL     1     -46.206  31.914  26.697  1.00  0.00     0.031 H 
ATOM     24  H   UNL     1     -47.196  34.967  24.804  1.00  0.00     0.052 H 
ATOM     25  H   UNL     1     -45.894  34.159  25.710  1.00  0.00     0.052 H 
ENDROOT
BRANCH   1  26
ATOM     26  C   UNL     1     -46.637  36.151  27.331  1.00  0.00     0.056 A 
ATOM     27  C   UNL     1     -45.148  38.358  28.205  1.00  0.00     0.055 A 
ATOM     28  C   UNL     1     -46.138  38.535  27.244  1.00  0.00    -0.037 A 
ATOM     29  N   UNL     1     -44.881  37.140  28.731  1.00  0.00    -0.258 NA
ATOM     30  C   UNL     1     -46.880  37.430  26.818  1.00  0.00    -0.035 A 
ATOM     31  H   UNL     1     -46.347  39.516  26.833  1.00  0.00     0.064 H 
ATOM     32  C   UNL     1     -45.624  36.091  28.294  1.00  0.00     0.051 A 
ATOM     33  H   UNL     1     -47.675  37.593  26.096  1.00  0.00     0.065 H 
ATOM     34  H   UNL     1     -45.341  35.154  28.761  1.00  0.00     0.086 H 
BRANCH  27  35
ATOM     35  C   UNL     1     -44.332  39.540  28.704  1.00  0.00     0.041 C 
ATOM     36  H   UNL     1     -45.004  40.196  29.274  1.00  0.00     0.050 H 
ATOM     37  H   UNL     1     -43.605  39.184  29.447  1.00  0.00     0.050 H 
BRANCH  35  38
ATOM     38  N   UNL     1     -43.630  40.349  27.692  1.00  0.00    -0.297 NA
ATOM     39  C   UNL     1     -43.528  43.046  26.347  1.00  0.00    -0.033 C 
ATOM     40  C   UNL     1     -44.778  42.131  26.364  1.00  0.00    -0.035 C 
ATOM     41  C   UNL     1     -42.379  42.414  27.174  1.00  0.00    -0.035 C 
ATOM     42  C   UNL     1     -44.407  40.653  26.491  1.00  0.00    -0.001 C 
ATOM     43  H   UNL     1     -45.377  42.283  25.457  1.00  0.00     0.029 H 
ATOM     44  H   UNL     1     -45.435  42.398  27.203  1.00  0.00     0.029 H 
ATOM     45  C   UNL     1     -42.917  41.492  28.270  1.00  0.00    -0.001 C 
ATOM     46  H   UNL     1     -41.752  43.195  27.623  1.00  0.00     0.029 H 
ATOM     47  H   UNL     1     -41.713  41.831  26.525  1.00  0.00     0.029 H 
ATOM     48  H   UNL     1     -45.309  40.034  26.416  1.00  0.00     0.043 H 
ATOM     49  H   UNL     1     -43.798  40.369  25.623  1.00  0.00     0.043 H 
ATOM     50  H   UNL     1     -42.076  41.125  28.870  1.00  0.00     0.043 H 
ATOM     51  H   UNL     1     -43.554  42.084  28.935  1.00  0.00     0.043 H 
BRANCH  39  52
ATOM     52  C   UNL     1     -43.045  43.259  24.900  1.00  0.00    -0.060 C 
ATOM     53  H   UNL     1     -42.577  42.353  24.500  1.00  0.00     0.024 H 
ATOM     54  H   UNL     1     -43.880  43.522  24.242  1.00  0.00     0.024 H 
ATOM     55  H   UNL     1     -42.306  44.066  24.841  1.00  0.00     0.024 H 
ENDBRANCH  39  52
BRANCH  39  56
ATOM     56  C   UNL     1     -43.910  44.418  26.933  1.00  0.00    -0.060 C 
ATOM     57  H   UNL     1     -44.980  44.467  27.163  1.00  0.00     0.024 H 
ATOM     58  H   UNL     1     -43.361  44.617  27.860  1.00  0.00     0.024 H 
ATOM     59  H   UNL     1     -43.685  45.227  26.230  1.00  0.00     0.024 H 
ENDBRANCH  39  56
ENDBRANCH  35  38
ENDBRANCH  27  35
ENDBRANCH   1  26
BRANCH   9  60
ATOM     60  C   UNL     1     -48.787  29.026  25.063  1.00  0.00     0.134 A 
ATOM     61  C   UNL     1     -49.439  28.670  23.894  1.00  0.00     0.023 A 
ATOM     62  N   UNL     1     -48.666  28.141  26.066  1.00  0.00    -0.219 NA
ATOM     63  C   UNL     1     -49.912  27.376  23.774  1.00  0.00     0.131 A 
ATOM     64  H   UNL     1     -49.621  29.392  23.112  1.00  0.00     0.070 H 
ATOM     65  C   UNL     1     -49.180  26.920  25.868  1.00  0.00     0.120 A 
ATOM     66  N   UNL     1     -49.798  26.488  24.765  1.00  0.00    -0.219 NA
ATOM     67  H   UNL     1     -49.085  26.212  26.684  1.00  0.00     0.106 H 
BRANCH  63  68
ATOM     68  N   UNL     1     -50.586  26.928  22.639  1.00  0.00    -0.366 N 
ATOM     69  H   UNL     1     -50.752  25.937  22.813  1.00  0.00     0.162 HD
BRANCH  68  70
ATOM     70  C   UNL     1     -49.921  27.132  21.358  1.00  0.00     0.041 C 
ATOM     71  H   UNL     1     -48.842  27.214  21.548  1.00  0.00     0.054 H 
ATOM     72  H   UNL     1     -50.026  26.279  20.677  1.00  0.00     0.054 H 
BRANCH  70  73
ATOM     73  C   UNL     1     -50.389  28.402  20.687  1.00  0.00    -0.029 A 
ATOM     74  C   UNL     1     -49.460  29.354  20.238  1.00  0.00    -0.057 A 
ATOM     75  C   UNL     1     -51.758  28.667  20.532  1.00  0.00    -0.057 A 
ATOM     76  C   UNL     1     -49.891  30.534  19.632  1.00  0.00    -0.062 A 
ATOM     77  H   UNL     1     -48.393  29.180  20.361  1.00  0.00     0.063 H 
ATOM     78  C   UNL     1     -52.186  29.849  19.927  1.00  0.00    -0.062 A 
ATOM     79  H   UNL     1     -52.499  27.958  20.894  1.00  0.00     0.063 H 
ATOM     80  C   UNL     1     -51.254  30.781  19.475  1.00  0.00    -0.062 A 
ATOM     81  H   UNL     1     -49.164  31.265  19.287  1.00  0.00     0.062 H 
ATOM     82  H   UNL     1     -53.249  30.048  19.816  1.00  0.00     0.062 H 
ATOM     83  H   UNL     1     -51.589  31.703  19.008  1.00  0.00     0.062 H 
ENDBRANCH  70  73
ENDBRANCH  68  70
ENDBRANCH  63  68
ENDBRANCH   9  60
TORSDOF 9
ENDMDL
