MODEL 1
REMARK VINA RESULT:     -10.3      0.000      0.000
REMARK SMILES CNc1ccc2ccc(OCc3cccc(-n4cc(C5CC5)c5c(N)ncnc54)c3)cc2n1
REMARK SMILES IDX 11 1 10 4 9 5 3 6 4 7 33 8 5 9 32 11 6 12 31 14 7 15 8 17
REMARK SMILES IDX 2 20 1 22 12 26 13 27 30 28 14 29 16 31 15 33 17 36 18 37
REMARK SMILES IDX 29 38 19 39 23 41 28 42 24 43 27 44 26 45 20 47 21 48 22 49
REMARK SMILES IDX 25 55
REMARK H PARENT 11 2 11 3 4 10 5 13 31 16 7 18 8 19 2 21 1 23 1 24 1 25 13 30
REMARK H PARENT 30 32 14 34 15 35 18 40 27 46 20 50 21 51 21 52 22 53 22 54
REMARK H PARENT 25 56 25 57
REMARK Flexibility Score: inf
ROOT
ATOM      1  C   UNL     1     -46.704  36.873  26.798  1.00  0.00     0.113 C 
ATOM      2  H   UNL     1     -45.799  37.226  26.288  1.00  0.00     0.076 H 
ATOM      3  H   UNL     1     -47.549  37.221  26.190  1.00  0.00     0.076 H 
ENDROOT
BRANCH   1   4
ATOM      4  O   UNL     1     -46.711  37.495  28.087  1.00  0.00    -0.489 OA
BRANCH   4   5
ATOM      5  C   UNL     1     -45.656  38.293  28.433  1.00  0.00     0.122 A 
ATOM      6  C   UNL     1     -42.755  42.038  27.963  1.00  0.00     0.126 A 
ATOM      7  C   UNL     1     -42.022  41.672  29.087  1.00  0.00    -0.019 A 
ATOM      8  N   UNL     1     -43.813  41.315  27.543  1.00  0.00    -0.231 NA
ATOM      9  C   UNL     1     -42.376  40.524  29.788  1.00  0.00    -0.049 A 
ATOM     10  H   UNL     1     -41.192  42.283  29.425  1.00  0.00     0.066 H 
ATOM     11  C   UNL     1     -44.164  40.204  28.217  1.00  0.00     0.076 A 
ATOM     12  C   UNL     1     -43.464  39.763  29.357  1.00  0.00     0.001 A 
ATOM     13  H   UNL     1     -41.805  40.239  30.668  1.00  0.00     0.063 H 
ATOM     14  C   UNL     1     -45.253  39.460  27.779  1.00  0.00     0.007 A 
ATOM     15  C   UNL     1     -43.866  38.599  30.028  1.00  0.00    -0.049 A 
ATOM     16  H   UNL     1     -45.784  39.837  26.912  1.00  0.00     0.069 H 
ATOM     17  C   UNL     1     -44.960  37.871  29.564  1.00  0.00    -0.019 A 
ATOM     18  H   UNL     1     -43.335  38.255  30.911  1.00  0.00     0.063 H 
ATOM     19  H   UNL     1     -45.270  36.970  30.087  1.00  0.00     0.066 H 
BRANCH   6  20
ATOM     20  N   UNL     1     -42.386  43.220  27.296  1.00  0.00    -0.373 N 
ATOM     21  H   UNL     1     -41.633  43.667  27.809  1.00  0.00     0.161 HD
BRANCH  20  22
ATOM     22  C   UNL     1     -42.051  43.033  25.893  1.00  0.00     0.005 C 
ATOM     23  H   UNL     1     -41.024  42.659  25.821  1.00  0.00     0.045 H 
ATOM     24  H   UNL     1     -42.706  42.296  25.417  1.00  0.00     0.045 H 
ATOM     25  H   UNL     1     -42.092  43.978  25.340  1.00  0.00     0.045 H 
ENDBRANCH  20  22
ENDBRANCH   6  20
ENDBRANCH   4   5
ENDBRANCH   1   4
BRANCH   1  26
ATOM     26  C   UNL     1     -46.625  35.363  26.859  1.00  0.00    -0.009 A 
ATOM     27  C   UNL     1     -45.916  34.749  27.897  1.00  0.00    -0.055 A 
ATOM     28  C   UNL     1     -47.301  34.556  25.925  1.00  0.00    -0.031 A 
ATOM     29  C   UNL     1     -45.864  33.360  27.983  1.00  0.00    -0.060 A 
ATOM     30  H   UNL     1     -45.396  35.346  28.643  1.00  0.00     0.063 H 
ATOM     31  C   UNL     1     -47.254  33.152  25.999  1.00  0.00     0.047 A 
ATOM     32  H   UNL     1     -47.879  35.062  25.156  1.00  0.00     0.065 H 
ATOM     33  C   UNL     1     -46.526  32.567  27.041  1.00  0.00    -0.038 A 
ATOM     34  H   UNL     1     -45.301  32.886  28.785  1.00  0.00     0.062 H 
ATOM     35  H   UNL     1     -46.426  31.491  27.145  1.00  0.00     0.064 H 
BRANCH  31  36
ATOM     36  N   UNL     1     -47.936  32.352  25.019  1.00  0.00    -0.301 N 
ATOM     37  C   UNL     1     -49.315  32.225  24.926  1.00  0.00     0.015 A 
ATOM     38  C   UNL     1     -47.379  31.575  23.995  1.00  0.00     0.150 A 
ATOM     39  C   UNL     1     -49.617  31.382  23.885  1.00  0.00    -0.013 A 
ATOM     40  H   UNL     1     -49.982  32.766  25.581  1.00  0.00     0.083 H 
ATOM     41  C   UNL     1     -48.411  30.969  23.278  1.00  0.00     0.065 A 
ATOM     42  N   UNL     1     -46.066  31.404  23.738  1.00  0.00    -0.218 NA
ATOM     43  C   UNL     1     -48.043  30.152  22.196  1.00  0.00     0.136 A 
ATOM     44  C   UNL     1     -45.839  30.602  22.692  1.00  0.00     0.120 A 
ATOM     45  N   UNL     1     -46.739  29.975  21.919  1.00  0.00    -0.219 NA
ATOM     46  H   UNL     1     -44.797  30.436  22.436  1.00  0.00     0.106 H 
BRANCH  39  47
ATOM     47  C   UNL     1     -51.049  31.008  23.435  1.00  0.00    -0.014 C 
ATOM     48  C   UNL     1     -51.657  31.672  22.226  1.00  0.00    -0.046 C 
ATOM     49  C   UNL     1     -52.151  32.024  23.598  1.00  0.00    -0.046 C 
ATOM     50  H   UNL     1     -51.307  29.965  23.599  1.00  0.00     0.035 H 
ATOM     51  H   UNL     1     -52.299  31.071  21.593  1.00  0.00     0.027 H 
ATOM     52  H   UNL     1     -51.089  32.423  21.690  1.00  0.00     0.027 H 
ATOM     53  H   UNL     1     -53.132  31.667  23.887  1.00  0.00     0.027 H 
ATOM     54  H   UNL     1     -51.901  33.006  23.984  1.00  0.00     0.027 H 
ENDBRANCH  39  47
BRANCH  43  55
ATOM     55  N   UNL     1     -48.944  29.481  21.380  1.00  0.00    -0.383 N 
ATOM     56  H   UNL     1     -48.694  29.477  20.401  1.00  0.00     0.158 HD
ATOM     57  H   UNL     1     -49.892  29.763  21.600  1.00  0.00     0.158 HD
ENDBRANCH  43  55
ENDBRANCH  31  36
ENDBRANCH   1  26
TORSDOF 8
ENDMDL
MODEL 2
REMARK VINA RESULT:     -10.3      1.947     10.634
REMARK SMILES CNc1ccc2ccc(OCc3cccc(-n4cc(C5CC5)c5c(N)ncnc54)c3)cc2n1
REMARK SMILES IDX 11 1 10 4 9 5 3 6 4 7 33 8 5 9 32 11 6 12 31 14 7 15 8 17
REMARK SMILES IDX 2 20 1 22 12 26 13 27 30 28 14 29 16 31 15 33 17 36 18 37
REMARK SMILES IDX 29 38 19 39 23 41 28 42 24 43 27 44 26 45 20 47 21 48 22 49
REMARK SMILES IDX 25 55
REMARK H PARENT 11 2 11 3 4 10 5 13 31 16 7 18 8 19 2 21 1 23 1 24 1 25 13 30
REMARK H PARENT 30 32 14 34 15 35 18 40 27 46 20 50 21 51 21 52 22 53 22 54
REMARK H PARENT 25 56 25 57
REMARK Flexibility Score: inf
ROOT
ATOM      1  C   UNL     1     -46.229  34.640  26.953  1.00  0.00     0.113 C 
ATOM      2  H   UNL     1     -45.890  34.606  25.911  1.00  0.00     0.076 H 
ATOM      3  H   UNL     1     -45.352  34.393  27.565  1.00  0.00     0.076 H 
ENDROOT
BRANCH   1   4
ATOM      4  O   UNL     1     -47.242  33.637  27.083  1.00  0.00    -0.489 OA
BRANCH   4   5
ATOM      5  C   UNL     1     -47.419  32.751  26.057  1.00  0.00     0.122 A 
ATOM      6  C   UNL     1     -46.518  30.895  21.766  1.00  0.00     0.126 A 
ATOM      7  C   UNL     1     -47.471  29.899  21.944  1.00  0.00    -0.019 A 
ATOM      8  N   UNL     1     -46.272  31.816  22.721  1.00  0.00    -0.231 NA
ATOM      9  C   UNL     1     -48.202  29.857  23.127  1.00  0.00    -0.049 A 
ATOM     10  H   UNL     1     -47.636  29.152  21.176  1.00  0.00     0.066 H 
ATOM     11  C   UNL     1     -46.972  31.780  23.870  1.00  0.00     0.076 A 
ATOM     12  C   UNL     1     -47.961  30.810  24.118  1.00  0.00     0.001 A 
ATOM     13  H   UNL     1     -48.946  29.077  23.268  1.00  0.00     0.063 H 
ATOM     14  C   UNL     1     -46.716  32.733  24.850  1.00  0.00     0.007 A 
ATOM     15  C   UNL     1     -48.665  30.812  25.331  1.00  0.00    -0.049 A 
ATOM     16  H   UNL     1     -45.934  33.453  24.637  1.00  0.00     0.069 H 
ATOM     17  C   UNL     1     -48.390  31.780  26.294  1.00  0.00    -0.019 A 
ATOM     18  H   UNL     1     -49.427  30.063  25.533  1.00  0.00     0.063 H 
ATOM     19  H   UNL     1     -48.937  31.778  27.234  1.00  0.00     0.066 H 
BRANCH   6  20
ATOM     20  N   UNL     1     -45.779  30.891  20.570  1.00  0.00    -0.373 N 
ATOM     21  H   UNL     1     -45.821  29.963  20.160  1.00  0.00     0.161 HD
BRANCH  20  22
ATOM     22  C   UNL     1     -46.173  31.921  19.621  1.00  0.00     0.005 C 
ATOM     23  H   UNL     1     -45.923  32.901  20.039  1.00  0.00     0.045 H 
ATOM     24  H   UNL     1     -45.638  31.820  18.671  1.00  0.00     0.045 H 
ATOM     25  H   UNL     1     -47.253  31.910  19.441  1.00  0.00     0.045 H 
ENDBRANCH  20  22
ENDBRANCH   6  20
ENDBRANCH   4   5
ENDBRANCH   1   4
BRANCH   1  26
ATOM     26  C   UNL     1     -46.734  36.042  27.215  1.00  0.00    -0.009 A 
ATOM     27  C   UNL     1     -48.083  36.245  27.528  1.00  0.00    -0.055 A 
ATOM     28  C   UNL     1     -45.864  37.148  27.208  1.00  0.00    -0.031 A 
ATOM     29  C   UNL     1     -48.553  37.526  27.804  1.00  0.00    -0.060 A 
ATOM     30  H   UNL     1     -48.777  35.408  27.556  1.00  0.00     0.063 H 
ATOM     31  C   UNL     1     -46.326  38.447  27.482  1.00  0.00     0.047 A 
ATOM     32  H   UNL     1     -44.814  36.953  27.004  1.00  0.00     0.065 H 
ATOM     33  C   UNL     1     -47.683  38.620  27.780  1.00  0.00    -0.038 A 
ATOM     34  H   UNL     1     -49.605  37.681  28.035  1.00  0.00     0.062 H 
ATOM     35  H   UNL     1     -48.113  39.596  27.975  1.00  0.00     0.064 H 
BRANCH  31  36
ATOM     36  N   UNL     1     -45.419  39.562  27.447  1.00  0.00    -0.301 N 
ATOM     37  C   UNL     1     -45.446  40.572  26.495  1.00  0.00     0.015 A 
ATOM     38  C   UNL     1     -44.372  39.855  28.330  1.00  0.00     0.150 A 
ATOM     39  C   UNL     1     -44.438  41.464  26.761  1.00  0.00    -0.013 A 
ATOM     40  H   UNL     1     -46.197  40.602  25.720  1.00  0.00     0.083 H 
ATOM     41  C   UNL     1     -43.754  41.037  27.920  1.00  0.00     0.065 A 
ATOM     42  N   UNL     1     -43.986  39.120  29.394  1.00  0.00    -0.218 NA
ATOM     43  C   UNL     1     -42.678  41.498  28.696  1.00  0.00     0.136 A 
ATOM     44  C   UNL     1     -42.951  39.655  30.051  1.00  0.00     0.120 A 
ATOM     45  N   UNL     1     -42.285  40.784  29.765  1.00  0.00    -0.219 NA
ATOM     46  H   UNL     1     -42.604  39.107  30.921  1.00  0.00     0.106 H 
BRANCH  39  47
ATOM     47  C   UNL     1     -44.153  42.747  25.945  1.00  0.00    -0.014 C 
ATOM     48  C   UNL     1     -44.291  42.733  24.445  1.00  0.00    -0.046 C 
ATOM     49  C   UNL     1     -42.928  42.793  25.068  1.00  0.00    -0.046 C 
ATOM     50  H   UNL     1     -44.436  43.667  26.452  1.00  0.00     0.035 H 
ATOM     51  H   UNL     1     -44.673  43.628  23.966  1.00  0.00     0.027 H 
ATOM     52  H   UNL     1     -44.574  41.813  23.946  1.00  0.00     0.027 H 
ATOM     53  H   UNL     1     -42.385  43.728  25.001  1.00  0.00     0.027 H 
ATOM     54  H   UNL     1     -42.305  41.909  24.996  1.00  0.00     0.027 H 
ENDBRANCH  39  47
BRANCH  43  55
ATOM     55  N   UNL     1     -41.960  42.656  28.429  1.00  0.00    -0.383 N 
ATOM     56  H   UNL     1     -41.065  42.707  28.895  1.00  0.00     0.158 HD
ATOM     57  H   UNL     1     -42.560  43.468  28.518  1.00  0.00     0.158 HD
ENDBRANCH  43  55
ENDBRANCH  31  36
ENDBRANCH   1  26
TORSDOF 8
ENDMDL
MODEL 3
REMARK VINA RESULT:      -9.9      2.255     11.099
REMARK SMILES CNc1ccc2ccc(OCc3cccc(-n4cc(C5CC5)c5c(N)ncnc54)c3)cc2n1
REMARK SMILES IDX 11 1 10 4 9 5 3 6 4 7 33 8 5 9 32 11 6 12 31 14 7 15 8 17
REMARK SMILES IDX 2 20 1 22 12 26 13 27 30 28 14 29 16 31 15 33 17 36 18 37
REMARK SMILES IDX 29 38 19 39 23 41 28 42 24 43 27 44 26 45 20 47 21 48 22 49
REMARK SMILES IDX 25 55
REMARK H PARENT 11 2 11 3 4 10 5 13 31 16 7 18 8 19 2 21 1 23 1 24 1 25 13 30
REMARK H PARENT 30 32 14 34 15 35 18 40 27 46 20 50 21 51 21 52 22 53 22 54
REMARK H PARENT 25 56 25 57
REMARK Flexibility Score: inf
ROOT
ATOM      1  C   UNL     1     -46.561  34.483  27.073  1.00  0.00     0.113 C 
ATOM      2  H   UNL     1     -46.069  34.460  26.092  1.00  0.00     0.076 H 
ATOM      3  H   UNL     1     -45.807  34.151  27.797  1.00  0.00     0.076 H 
ENDROOT
BRANCH   1   4
ATOM      4  O   UNL     1     -47.647  33.554  27.002  1.00  0.00    -0.489 OA
BRANCH   4   5
ATOM      5  C   UNL     1     -47.597  32.560  26.065  1.00  0.00     0.122 A 
ATOM      6  C   UNL     1     -49.009  28.503  24.011  1.00  0.00     0.126 A 
ATOM      7  C   UNL     1     -48.046  28.616  23.015  1.00  0.00    -0.019 A 
ATOM      8  N   UNL     1     -49.137  29.434  24.979  1.00  0.00    -0.231 NA
ATOM      9  C   UNL     1     -47.180  29.705  23.023  1.00  0.00    -0.049 A 
ATOM     10  H   UNL     1     -47.977  27.872  22.229  1.00  0.00     0.066 H 
ATOM     11  C   UNL     1     -48.305  30.492  24.993  1.00  0.00     0.076 A 
ATOM     12  C   UNL     1     -47.297  30.669  24.026  1.00  0.00     0.001 A 
ATOM     13  H   UNL     1     -46.428  29.795  22.244  1.00  0.00     0.063 H 
ATOM     14  C   UNL     1     -48.439  31.447  25.994  1.00  0.00     0.007 A 
ATOM     15  C   UNL     1     -46.454  31.788  24.080  1.00  0.00    -0.049 A 
ATOM     16  H   UNL     1     -49.238  31.293  26.711  1.00  0.00     0.069 H 
ATOM     17  C   UNL     1     -46.609  32.728  25.097  1.00  0.00    -0.019 A 
ATOM     18  H   UNL     1     -45.676  31.935  23.334  1.00  0.00     0.063 H 
ATOM     19  H   UNL     1     -45.954  33.595  25.136  1.00  0.00     0.066 H 
BRANCH   6  20
ATOM     20  N   UNL     1     -49.885  27.405  23.955  1.00  0.00    -0.373 N 
ATOM     21  H   UNL     1     -49.785  26.949  23.054  1.00  0.00     0.161 HD
BRANCH  20  22
ATOM     22  C   UNL     1     -49.738  26.467  25.057  1.00  0.00     0.005 C 
ATOM     23  H   UNL     1     -48.677  26.395  25.321  1.00  0.00     0.045 H 
ATOM     24  H   UNL     1     -50.278  26.803  25.947  1.00  0.00     0.045 H 
ATOM     25  H   UNL     1     -50.072  25.462  24.778  1.00  0.00     0.045 H 
ENDBRANCH  20  22
ENDBRANCH   6  20
ENDBRANCH   4   5
ENDBRANCH   1   4
BRANCH   1  26
ATOM     26  C   UNL     1     -47.005  35.909  27.319  1.00  0.00    -0.009 A 
ATOM     27  C   UNL     1     -48.343  36.174  27.628  1.00  0.00    -0.055 A 
ATOM     28  C   UNL     1     -46.086  36.975  27.301  1.00  0.00    -0.031 A 
ATOM     29  C   UNL     1     -48.757  37.477  27.889  1.00  0.00    -0.060 A 
ATOM     30  H   UNL     1     -49.074  35.368  27.664  1.00  0.00     0.063 H 
ATOM     31  C   UNL     1     -46.492  38.296  27.561  1.00  0.00     0.047 A 
ATOM     32  H   UNL     1     -45.046  36.732  27.101  1.00  0.00     0.065 H 
ATOM     33  C   UNL     1     -47.840  38.531  27.854  1.00  0.00    -0.038 A 
ATOM     34  H   UNL     1     -49.801  37.680  28.117  1.00  0.00     0.062 H 
ATOM     35  H   UNL     1     -48.227  39.528  28.039  1.00  0.00     0.064 H 
BRANCH  31  36
ATOM     36  N   UNL     1     -45.536  39.369  27.515  1.00  0.00    -0.301 N 
ATOM     37  C   UNL     1     -45.519  40.370  26.553  1.00  0.00     0.015 A 
ATOM     38  C   UNL     1     -44.478  39.625  28.396  1.00  0.00     0.150 A 
ATOM     39  C   UNL     1     -44.473  41.220  26.811  1.00  0.00    -0.013 A 
ATOM     40  H   UNL     1     -46.268  40.425  25.777  1.00  0.00     0.083 H 
ATOM     41  C   UNL     1     -43.808  40.775  27.975  1.00  0.00     0.065 A 
ATOM     42  N   UNL     1     -44.125  38.885  29.468  1.00  0.00    -0.218 NA
ATOM     43  C   UNL     1     -42.714  41.196  28.747  1.00  0.00     0.136 A 
ATOM     44  C   UNL     1     -43.068  39.380  30.120  1.00  0.00     0.120 A 
ATOM     45  N   UNL     1     -42.353  40.477  29.823  1.00  0.00    -0.219 NA
ATOM     46  H   UNL     1     -42.745  38.827  30.996  1.00  0.00     0.106 H 
BRANCH  39  47
ATOM     47  C   UNL     1     -44.131  42.481  25.983  1.00  0.00    -0.014 C 
ATOM     48  C   UNL     1     -45.112  43.002  24.963  1.00  0.00    -0.046 C 
ATOM     49  C   UNL     1     -43.851  42.328  24.509  1.00  0.00    -0.046 C 
ATOM     50  H   UNL     1     -43.551  43.224  26.524  1.00  0.00     0.035 H 
ATOM     51  H   UNL     1     -45.188  44.076  24.842  1.00  0.00     0.027 H 
ATOM     52  H   UNL     1     -46.046  42.475  24.807  1.00  0.00     0.027 H 
ATOM     53  H   UNL     1     -43.079  42.950  24.072  1.00  0.00     0.027 H 
ATOM     54  H   UNL     1     -43.941  41.346  24.060  1.00  0.00     0.027 H 
ENDBRANCH  39  47
BRANCH  43  55
ATOM     55  N   UNL     1     -41.946  42.318  28.469  1.00  0.00    -0.383 N 
ATOM     56  H   UNL     1     -42.480  43.130  28.193  1.00  0.00     0.158 HD
ATOM     57  H   UNL     1     -41.167  42.070  27.869  1.00  0.00     0.158 HD
ENDBRANCH  43  55
ENDBRANCH  31  36
ENDBRANCH   1  26
TORSDOF 8
ENDMDL
MODEL 4
REMARK VINA RESULT:      -9.9      3.049      4.788
REMARK SMILES CNc1ccc2ccc(OCc3cccc(-n4cc(C5CC5)c5c(N)ncnc54)c3)cc2n1
REMARK SMILES IDX 11 1 10 4 9 5 3 6 4 7 33 8 5 9 32 11 6 12 31 14 7 15 8 17
REMARK SMILES IDX 2 20 1 22 12 26 13 27 30 28 14 29 16 31 15 33 17 36 18 37
REMARK SMILES IDX 29 38 19 39 23 41 28 42 24 43 27 44 26 45 20 47 21 48 22 49
REMARK SMILES IDX 25 55
REMARK H PARENT 11 2 11 3 4 10 5 13 31 16 7 18 8 19 2 21 1 23 1 24 1 25 13 30
REMARK H PARENT 30 32 14 34 15 35 18 40 27 46 20 50 21 51 21 52 22 53 22 54
REMARK H PARENT 25 56 25 57
REMARK Flexibility Score: inf
ROOT
ATOM      1  C   UNL     1     -49.073  33.599  26.250  1.00  0.00     0.113 C 
ATOM      2  H   UNL     1     -49.071  34.493  25.615  1.00  0.00     0.076 H 
ATOM      3  H   UNL     1     -49.818  33.786  27.034  1.00  0.00     0.076 H 
ENDROOT
BRANCH   1   4
ATOM      4  O   UNL     1     -47.759  33.495  26.808  1.00  0.00    -0.489 OA
BRANCH   4   5
ATOM      5  C   UNL     1     -47.104  34.644  27.154  1.00  0.00     0.122 A 
ATOM      6  C   UNL     1     -46.061  39.277  26.810  1.00  0.00     0.126 A 
ATOM      7  C   UNL     1     -45.152  39.199  27.859  1.00  0.00    -0.019 A 
ATOM      8  N   UNL     1     -46.756  38.198  26.396  1.00  0.00    -0.231 NA
ATOM      9  C   UNL     1     -44.939  37.977  28.489  1.00  0.00    -0.049 A 
ATOM     10  H   UNL     1     -44.623  40.084  28.195  1.00  0.00     0.066 H 
ATOM     11  C   UNL     1     -46.558  37.012  27.002  1.00  0.00     0.076 A 
ATOM     12  C   UNL     1     -45.646  36.852  28.062  1.00  0.00     0.001 A 
ATOM     13  H   UNL     1     -44.230  37.916  29.310  1.00  0.00     0.063 H 
ATOM     14  C   UNL     1     -47.276  35.902  26.570  1.00  0.00     0.007 A 
ATOM     15  C   UNL     1     -45.474  35.597  28.664  1.00  0.00    -0.049 A 
ATOM     16  H   UNL     1     -47.985  36.063  25.766  1.00  0.00     0.069 H 
ATOM     17  C   UNL     1     -46.204  34.501  28.208  1.00  0.00    -0.019 A 
ATOM     18  H   UNL     1     -44.776  35.465  29.486  1.00  0.00     0.063 H 
ATOM     19  H   UNL     1     -46.068  33.529  28.677  1.00  0.00     0.066 H 
BRANCH   6  20
ATOM     20  N   UNL     1     -46.271  40.534  26.216  1.00  0.00    -0.373 N 
ATOM     21  H   UNL     1     -46.956  41.047  26.761  1.00  0.00     0.161 HD
BRANCH  20  22
ATOM     22  C   UNL     1     -45.056  41.306  26.007  1.00  0.00     0.005 C 
ATOM     23  H   UNL     1     -45.328  42.309  25.662  1.00  0.00     0.045 H 
ATOM     24  H   UNL     1     -44.486  41.419  26.935  1.00  0.00     0.045 H 
ATOM     25  H   UNL     1     -44.422  40.858  25.235  1.00  0.00     0.045 H 
ENDBRANCH  20  22
ENDBRANCH   6  20
ENDBRANCH   4   5
ENDBRANCH   1   4
BRANCH   1  26
ATOM     26  C   UNL     1     -49.447  32.425  25.371  1.00  0.00    -0.009 A 
ATOM     27  C   UNL     1     -50.571  32.511  24.542  1.00  0.00    -0.055 A 
ATOM     28  C   UNL     1     -48.653  31.264  25.325  1.00  0.00    -0.031 A 
ATOM     29  C   UNL     1     -50.906  31.450  23.705  1.00  0.00    -0.060 A 
ATOM     30  H   UNL     1     -51.195  33.401  24.545  1.00  0.00     0.063 H 
ATOM     31  C   UNL     1     -48.982  30.184  24.485  1.00  0.00     0.047 A 
ATOM     32  H   UNL     1     -47.763  31.244  25.948  1.00  0.00     0.065 H 
ATOM     33  C   UNL     1     -50.119  30.295  23.677  1.00  0.00    -0.038 A 
ATOM     34  H   UNL     1     -51.787  31.516  23.071  1.00  0.00     0.062 H 
ATOM     35  H   UNL     1     -50.446  29.492  23.025  1.00  0.00     0.064 H 
BRANCH  31  36
ATOM     36  N   UNL     1     -48.166  29.001  24.473  1.00  0.00    -0.301 N 
ATOM     37  C   UNL     1     -48.429  27.854  25.208  1.00  0.00     0.015 A 
ATOM     38  C   UNL     1     -46.993  28.765  23.744  1.00  0.00     0.150 A 
ATOM     39  C   UNL     1     -47.445  26.929  24.962  1.00  0.00    -0.013 A 
ATOM     40  H   UNL     1     -49.311  27.763  25.825  1.00  0.00     0.083 H 
ATOM     41  C   UNL     1     -46.534  27.480  24.034  1.00  0.00     0.065 A 
ATOM     42  N   UNL     1     -46.374  29.629  22.913  1.00  0.00    -0.218 NA
ATOM     43  C   UNL     1     -45.363  27.057  23.383  1.00  0.00     0.136 A 
ATOM     44  C   UNL     1     -45.269  29.119  22.358  1.00  0.00     0.120 A 
ATOM     45  N   UNL     1     -44.737  27.901  22.544  1.00  0.00    -0.219 NA
ATOM     46  H   UNL     1     -44.735  29.770  21.672  1.00  0.00     0.106 H 
BRANCH  39  47
ATOM     47  C   UNL     1     -47.393  25.507  25.568  1.00  0.00    -0.014 C 
ATOM     48  C   UNL     1     -48.283  25.151  26.732  1.00  0.00    -0.046 C 
ATOM     49  C   UNL     1     -46.809  25.326  26.947  1.00  0.00    -0.046 C 
ATOM     50  H   UNL     1     -47.204  24.722  24.842  1.00  0.00     0.035 H 
ATOM     51  H   UNL     1     -48.687  24.146  26.766  1.00  0.00     0.027 H 
ATOM     52  H   UNL     1     -48.943  25.904  27.146  1.00  0.00     0.027 H 
ATOM     53  H   UNL     1     -46.219  24.438  27.136  1.00  0.00     0.027 H 
ATOM     54  H   UNL     1     -46.483  26.204  27.494  1.00  0.00     0.027 H 
ENDBRANCH  39  47
BRANCH  43  55
ATOM     55  N   UNL     1     -44.778  25.811  23.555  1.00  0.00    -0.383 N 
ATOM     56  H   UNL     1     -44.522  25.348  22.694  1.00  0.00     0.158 HD
ATOM     57  H   UNL     1     -45.314  25.261  24.217  1.00  0.00     0.158 HD
ENDBRANCH  43  55
ENDBRANCH  31  36
ENDBRANCH   1  26
TORSDOF 8
ENDMDL
MODEL 5
REMARK VINA RESULT:      -9.8      2.267      3.180
REMARK SMILES CNc1ccc2ccc(OCc3cccc(-n4cc(C5CC5)c5c(N)ncnc54)c3)cc2n1
REMARK SMILES IDX 11 1 10 4 9 5 3 6 4 7 33 8 5 9 32 11 6 12 31 14 7 15 8 17
REMARK SMILES IDX 2 20 1 22 12 26 13 27 30 28 14 29 16 31 15 33 17 36 18 37
REMARK SMILES IDX 29 38 19 39 23 41 28 42 24 43 27 44 26 45 20 47 21 48 22 49
REMARK SMILES IDX 25 55
REMARK H PARENT 11 2 11 3 4 10 5 13 31 16 7 18 8 19 2 21 1 23 1 24 1 25 13 30
REMARK H PARENT 30 32 14 34 15 35 18 40 27 46 20 50 21 51 21 52 22 53 22 54
REMARK H PARENT 25 56 25 57
REMARK Flexibility Score: inf
ROOT
ATOM      1  C   UNL     1     -48.814  35.444  27.240  1.00  0.00     0.113 C 
ATOM      2  H   UNL     1     -48.918  36.354  26.637  1.00  0.00     0.076 H 
ATOM      3  H   UNL     1     -49.834  35.131  27.496  1.00  0.00     0.076 H 
ENDROOT
BRANCH   1   4
ATOM      4  O   UNL     1     -48.084  35.818  28.414  1.00  0.00    -0.489 OA
BRANCH   4   5
ATOM      5  C   UNL     1     -47.155  36.816  28.315  1.00  0.00     0.122 A 
ATOM      6  C   UNL     1     -45.236  40.741  26.423  1.00  0.00     0.126 A 
ATOM      7  C   UNL     1     -44.203  40.742  27.354  1.00  0.00    -0.019 A 
ATOM      8  N   UNL     1     -46.200  39.798  26.440  1.00  0.00    -0.231 NA
ATOM      9  C   UNL     1     -44.150  39.739  28.317  1.00  0.00    -0.049 A 
ATOM     10  H   UNL     1     -43.452  41.525  27.342  1.00  0.00     0.066 H 
ATOM     11  C   UNL     1     -46.158  38.825  27.369  1.00  0.00     0.076 A 
ATOM     12  C   UNL     1     -45.138  38.754  28.337  1.00  0.00     0.001 A 
ATOM     13  H   UNL     1     -43.345  39.741  29.046  1.00  0.00     0.063 H 
ATOM     14  C   UNL     1     -47.153  37.854  27.381  1.00  0.00     0.007 A 
ATOM     15  C   UNL     1     -45.136  37.722  29.287  1.00  0.00    -0.049 A 
ATOM     16  H   UNL     1     -47.936  37.950  26.636  1.00  0.00     0.069 H 
ATOM     17  C   UNL     1     -46.144  36.760  29.272  1.00  0.00    -0.019 A 
ATOM     18  H   UNL     1     -44.355  37.662  30.041  1.00  0.00     0.063 H 
ATOM     19  H   UNL     1     -46.140  35.962  30.011  1.00  0.00     0.066 H 
BRANCH   6  20
ATOM     20  N   UNL     1     -45.272  41.785  25.482  1.00  0.00    -0.373 N 
ATOM     21  H   UNL     1     -46.041  42.407  25.710  1.00  0.00     0.161 HD
BRANCH  20  22
ATOM     22  C   UNL     1     -44.017  42.505  25.341  1.00  0.00     0.005 C 
ATOM     23  H   UNL     1     -43.189  41.793  25.427  1.00  0.00     0.045 H 
ATOM     24  H   UNL     1     -43.937  42.988  24.361  1.00  0.00     0.045 H 
ATOM     25  H   UNL     1     -43.888  43.251  26.133  1.00  0.00     0.045 H 
ENDBRANCH  20  22
ENDBRANCH   6  20
ENDBRANCH   4   5
ENDBRANCH   1   4
BRANCH   1  26
ATOM     26  C   UNL     1     -48.096  34.420  26.388  1.00  0.00    -0.009 A 
ATOM     27  C   UNL     1     -46.769  34.645  26.006  1.00  0.00    -0.055 A 
ATOM     28  C   UNL     1     -48.716  33.212  26.018  1.00  0.00    -0.031 A 
ATOM     29  C   UNL     1     -46.088  33.695  25.250  1.00  0.00    -0.060 A 
ATOM     30  H   UNL     1     -46.258  35.562  26.290  1.00  0.00     0.063 H 
ATOM     31  C   UNL     1     -48.040  32.246  25.252  1.00  0.00     0.047 A 
ATOM     32  H   UNL     1     -49.733  33.047  26.366  1.00  0.00     0.065 H 
ATOM     33  C   UNL     1     -46.718  32.505  24.874  1.00  0.00    -0.038 A 
ATOM     34  H   UNL     1     -45.060  33.879  24.944  1.00  0.00     0.062 H 
ATOM     35  H   UNL     1     -46.145  31.816  24.262  1.00  0.00     0.064 H 
BRANCH  31  36
ATOM     36  N   UNL     1     -48.705  31.030  24.869  1.00  0.00    -0.301 N 
ATOM     37  C   UNL     1     -48.680  29.852  25.603  1.00  0.00     0.015 A 
ATOM     38  C   UNL     1     -49.489  30.792  23.732  1.00  0.00     0.150 A 
ATOM     39  C   UNL     1     -49.412  28.898  24.942  1.00  0.00    -0.013 A 
ATOM     40  H   UNL     1     -48.174  29.786  26.555  1.00  0.00     0.083 H 
ATOM     41  C   UNL     1     -49.939  29.472  23.764  1.00  0.00     0.065 A 
ATOM     42  N   UNL     1     -49.758  31.668  22.742  1.00  0.00    -0.218 NA
ATOM     43  C   UNL     1     -50.756  29.049  22.702  1.00  0.00     0.136 A 
ATOM     44  C   UNL     1     -50.538  31.151  21.786  1.00  0.00     0.120 A 
ATOM     45  N   UNL     1     -51.042  29.910  21.711  1.00  0.00    -0.219 NA
ATOM     46  H   UNL     1     -50.793  31.817  20.967  1.00  0.00     0.106 H 
BRANCH  39  47
ATOM     47  C   UNL     1     -49.651  27.456  25.449  1.00  0.00    -0.014 C 
ATOM     48  C   UNL     1     -48.862  26.928  26.619  1.00  0.00    -0.046 C 
ATOM     49  C   UNL     1     -48.574  26.423  25.237  1.00  0.00    -0.046 C 
ATOM     50  H   UNL     1     -50.682  27.123  25.368  1.00  0.00     0.035 H 
ATOM     51  H   UNL     1     -49.369  26.263  27.309  1.00  0.00     0.027 H 
ATOM     52  H   UNL     1     -48.116  27.561  27.086  1.00  0.00     0.027 H 
ATOM     53  H   UNL     1     -48.880  25.412  24.997  1.00  0.00     0.027 H 
ATOM     54  H   UNL     1     -47.642  26.728  24.774  1.00  0.00     0.027 H 
ENDBRANCH  39  47
BRANCH  43  55
ATOM     55  N   UNL     1     -51.289  27.773  22.585  1.00  0.00    -0.383 N 
ATOM     56  H   UNL     1     -52.298  27.740  22.612  1.00  0.00     0.158 HD
ATOM     57  H   UNL     1     -50.803  27.133  23.203  1.00  0.00     0.158 HD
ENDBRANCH  43  55
ENDBRANCH  31  36
ENDBRANCH   1  26
TORSDOF 8
ENDMDL
MODEL 6
REMARK VINA RESULT:      -9.8      1.766     10.849
REMARK SMILES CNc1ccc2ccc(OCc3cccc(-n4cc(C5CC5)c5c(N)ncnc54)c3)cc2n1
REMARK SMILES IDX 11 1 10 4 9 5 3 6 4 7 33 8 5 9 32 11 6 12 31 14 7 15 8 17
REMARK SMILES IDX 2 20 1 22 12 26 13 27 30 28 14 29 16 31 15 33 17 36 18 37
REMARK SMILES IDX 29 38 19 39 23 41 28 42 24 43 27 44 26 45 20 47 21 48 22 49
REMARK SMILES IDX 25 55
REMARK H PARENT 11 2 11 3 4 10 5 13 31 16 7 18 8 19 2 21 1 23 1 24 1 25 13 30
REMARK H PARENT 30 32 14 34 15 35 18 40 27 46 20 50 21 51 21 52 22 53 22 54
REMARK H PARENT 25 56 25 57
REMARK Flexibility Score: inf
ROOT
ATOM      1  C   UNL     1     -47.097  35.331  27.916  1.00  0.00     0.113 C 
ATOM      2  H   UNL     1     -46.488  35.152  28.811  1.00  0.00     0.076 H 
ATOM      3  H   UNL     1     -48.017  34.749  28.055  1.00  0.00     0.076 H 
ENDROOT
BRANCH   1   4
ATOM      4  O   UNL     1     -46.341  34.835  26.806  1.00  0.00    -0.489 OA
BRANCH   4   5
ATOM      5  C   UNL     1     -46.878  33.835  26.044  1.00  0.00     0.122 A 
ATOM      6  C   UNL     1     -46.776  30.425  22.724  1.00  0.00     0.126 A 
ATOM      7  C   UNL     1     -48.111  30.104  22.945  1.00  0.00    -0.019 A 
ATOM      8  N   UNL     1     -46.158  31.396  23.426  1.00  0.00    -0.231 NA
ATOM      9  C   UNL     1     -48.834  30.809  23.901  1.00  0.00    -0.049 A 
ATOM     10  H   UNL     1     -48.583  29.301  22.389  1.00  0.00     0.066 H 
ATOM     11  C   UNL     1     -46.849  32.082  24.355  1.00  0.00     0.076 A 
ATOM     12  C   UNL     1     -48.206  31.822  24.628  1.00  0.00     0.001 A 
ATOM     13  H   UNL     1     -49.876  30.557  24.076  1.00  0.00     0.063 H 
ATOM     14  C   UNL     1     -46.208  33.084  25.075  1.00  0.00     0.007 A 
ATOM     15  C   UNL     1     -48.885  32.563  25.606  1.00  0.00    -0.049 A 
ATOM     16  H   UNL     1     -45.158  33.245  24.857  1.00  0.00     0.069 H 
ATOM     17  C   UNL     1     -48.218  33.564  26.309  1.00  0.00    -0.019 A 
ATOM     18  H   UNL     1     -49.931  32.365  25.826  1.00  0.00     0.063 H 
ATOM     19  H   UNL     1     -48.748  34.135  27.068  1.00  0.00     0.066 H 
BRANCH   6  20
ATOM     20  N   UNL     1     -46.070  29.672  21.769  1.00  0.00    -0.373 N 
ATOM     21  H   UNL     1     -45.862  30.263  20.971  1.00  0.00     0.161 HD
BRANCH  20  22
ATOM     22  C   UNL     1     -44.877  29.020  22.287  1.00  0.00     0.005 C 
ATOM     23  H   UNL     1     -45.179  28.150  22.879  1.00  0.00     0.045 H 
ATOM     24  H   UNL     1     -44.230  28.662  21.479  1.00  0.00     0.045 H 
ATOM     25  H   UNL     1     -44.311  29.684  22.949  1.00  0.00     0.045 H 
ENDBRANCH  20  22
ENDBRANCH   6  20
ENDBRANCH   4   5
ENDBRANCH   1   4
BRANCH   1  26
ATOM     26  C   UNL     1     -47.364  36.818  27.845  1.00  0.00    -0.009 A 
ATOM     27  C   UNL     1     -48.677  37.292  27.942  1.00  0.00    -0.055 A 
ATOM     28  C   UNL     1     -46.311  37.747  27.741  1.00  0.00    -0.031 A 
ATOM     29  C   UNL     1     -48.932  38.660  27.911  1.00  0.00    -0.060 A 
ATOM     30  H   UNL     1     -49.510  36.600  28.039  1.00  0.00     0.063 H 
ATOM     31  C   UNL     1     -46.555  39.131  27.705  1.00  0.00     0.047 A 
ATOM     32  H   UNL     1     -45.299  37.351  27.710  1.00  0.00     0.065 H 
ATOM     33  C   UNL     1     -47.880  39.574  27.792  1.00  0.00    -0.038 A 
ATOM     34  H   UNL     1     -49.955  39.024  27.975  1.00  0.00     0.062 H 
ATOM     35  H   UNL     1     -48.144  40.625  27.746  1.00  0.00     0.064 H 
BRANCH  31  36
ATOM     36  N   UNL     1     -45.463  40.057  27.577  1.00  0.00    -0.301 N 
ATOM     37  C   UNL     1     -44.255  39.951  28.253  1.00  0.00     0.015 A 
ATOM     38  C   UNL     1     -45.387  41.201  26.773  1.00  0.00     0.150 A 
ATOM     39  C   UNL     1     -43.450  41.004  27.898  1.00  0.00    -0.013 A 
ATOM     40  H   UNL     1     -44.042  39.120  28.910  1.00  0.00     0.083 H 
ATOM     41  C   UNL     1     -44.140  41.800  26.958  1.00  0.00     0.065 A 
ATOM     42  N   UNL     1     -46.353  41.682  25.964  1.00  0.00    -0.218 NA
ATOM     43  C   UNL     1     -43.874  42.965  26.220  1.00  0.00     0.136 A 
ATOM     44  C   UNL     1     -45.989  42.797  25.320  1.00  0.00     0.120 A 
ATOM     45  N   UNL     1     -44.822  43.455  25.402  1.00  0.00    -0.219 NA
ATOM     46  H   UNL     1     -46.727  43.223  24.648  1.00  0.00     0.106 H 
BRANCH  39  47
ATOM     47  C   UNL     1     -42.008  41.229  28.412  1.00  0.00    -0.014 C 
ATOM     48  C   UNL     1     -41.635  40.817  29.813  1.00  0.00    -0.046 C 
ATOM     49  C   UNL     1     -41.772  42.272  29.476  1.00  0.00    -0.046 C 
ATOM     50  H   UNL     1     -41.242  41.115  27.650  1.00  0.00     0.035 H 
ATOM     51  H   UNL     1     -40.638  40.422  29.972  1.00  0.00     0.027 H 
ATOM     52  H   UNL     1     -42.388  40.379  30.457  1.00  0.00     0.027 H 
ATOM     53  H   UNL     1     -40.865  42.862  29.416  1.00  0.00     0.027 H 
ATOM     54  H   UNL     1     -42.624  42.803  29.884  1.00  0.00     0.027 H 
ENDBRANCH  39  47
BRANCH  43  55
ATOM     55  N   UNL     1     -42.685  43.678  26.284  1.00  0.00    -0.383 N 
ATOM     56  H   UNL     1     -42.298  43.758  27.214  1.00  0.00     0.158 HD
ATOM     57  H   UNL     1     -42.765  44.539  25.756  1.00  0.00     0.158 HD
ENDBRANCH  43  55
ENDBRANCH  31  36
ENDBRANCH   1  26
TORSDOF 8
ENDMDL
MODEL 7
REMARK VINA RESULT:      -9.8      2.337     11.375
REMARK SMILES CNc1ccc2ccc(OCc3cccc(-n4cc(C5CC5)c5c(N)ncnc54)c3)cc2n1
REMARK SMILES IDX 11 1 10 4 9 5 3 6 4 7 33 8 5 9 32 11 6 12 31 14 7 15 8 17
REMARK SMILES IDX 2 20 1 22 12 26 13 27 30 28 14 29 16 31 15 33 17 36 18 37
REMARK SMILES IDX 29 38 19 39 23 41 28 42 24 43 27 44 26 45 20 47 21 48 22 49
REMARK SMILES IDX 25 55
REMARK H PARENT 11 2 11 3 4 10 5 13 31 16 7 18 8 19 2 21 1 23 1 24 1 25 13 30
REMARK H PARENT 30 32 14 34 15 35 18 40 27 46 20 50 21 51 21 52 22 53 22 54
REMARK H PARENT 25 56 25 57
REMARK Flexibility Score: inf
ROOT
ATOM      1  C   UNL     1     -46.754  34.994  26.343  1.00  0.00     0.113 C 
ATOM      2  H   UNL     1     -46.311  35.149  25.352  1.00  0.00     0.076 H 
ATOM      3  H   UNL     1     -45.989  34.483  26.942  1.00  0.00     0.076 H 
ENDROOT
BRANCH   1   4
ATOM      4  O   UNL     1     -47.897  34.154  26.149  1.00  0.00    -0.489 OA
BRANCH   4   5
ATOM      5  C   UNL     1     -47.723  32.949  25.527  1.00  0.00     0.122 A 
ATOM      6  C   UNL     1     -48.790  28.411  24.558  1.00  0.00     0.126 A 
ATOM      7  C   UNL     1     -47.741  28.308  23.651  1.00  0.00    -0.019 A 
ATOM      8  N   UNL     1     -49.041  29.559  25.220  1.00  0.00    -0.231 NA
ATOM      9  C   UNL     1     -46.919  29.409  23.430  1.00  0.00    -0.049 A 
ATOM     10  H   UNL     1     -47.572  27.385  23.107  1.00  0.00     0.066 H 
ATOM     11  C   UNL     1     -48.253  30.630  25.010  1.00  0.00     0.076 A 
ATOM     12  C   UNL     1     -47.165  30.599  24.117  1.00  0.00     0.001 A 
ATOM     13  H   UNL     1     -46.101  29.330  22.720  1.00  0.00     0.063 H 
ATOM     14  C   UNL     1     -48.515  31.810  25.697  1.00  0.00     0.007 A 
ATOM     15  C   UNL     1     -46.371  31.740  23.930  1.00  0.00    -0.049 A 
ATOM     16  H   UNL     1     -49.372  31.807  26.361  1.00  0.00     0.069 H 
ATOM     17  C   UNL     1     -46.654  32.908  24.635  1.00  0.00    -0.019 A 
ATOM     18  H   UNL     1     -45.532  31.726  23.238  1.00  0.00     0.063 H 
ATOM     19  H   UNL     1     -46.037  33.791  24.487  1.00  0.00     0.066 H 
BRANCH   6  20
ATOM     20  N   UNL     1     -49.617  27.287  24.734  1.00  0.00    -0.373 N 
ATOM     21  H   UNL     1     -50.080  27.357  25.635  1.00  0.00     0.161 HD
BRANCH  20  22
ATOM     22  C   UNL     1     -50.564  27.067  23.653  1.00  0.00     0.005 C 
ATOM     23  H   UNL     1     -50.229  27.622  22.770  1.00  0.00     0.045 H 
ATOM     24  H   UNL     1     -50.621  26.010  23.376  1.00  0.00     0.045 H 
ATOM     25  H   UNL     1     -51.562  27.438  23.910  1.00  0.00     0.045 H 
ENDBRANCH  20  22
ENDBRANCH   6  20
ENDBRANCH   4   5
ENDBRANCH   1   4
BRANCH   1  26
ATOM     26  C   UNL     1     -47.100  36.359  26.898  1.00  0.00    -0.009 A 
ATOM     27  C   UNL     1     -48.364  36.580  27.456  1.00  0.00    -0.055 A 
ATOM     28  C   UNL     1     -46.155  37.401  26.919  1.00  0.00    -0.031 A 
ATOM     29  C   UNL     1     -48.683  37.821  28.000  1.00  0.00    -0.060 A 
ATOM     30  H   UNL     1     -49.110  35.789  27.468  1.00  0.00     0.063 H 
ATOM     31  C   UNL     1     -46.465  38.661  27.463  1.00  0.00     0.047 A 
ATOM     32  H   UNL     1     -45.168  37.187  26.518  1.00  0.00     0.065 H 
ATOM     33  C   UNL     1     -47.741  38.855  28.002  1.00  0.00    -0.038 A 
ATOM     34  H   UNL     1     -49.670  37.992  28.422  1.00  0.00     0.062 H 
ATOM     35  H   UNL     1     -48.057  39.808  28.415  1.00  0.00     0.064 H 
BRANCH  31  36
ATOM     36  N   UNL     1     -45.487  39.715  27.452  1.00  0.00    -0.301 N 
ATOM     37  C   UNL     1     -44.253  39.653  28.084  1.00  0.00     0.015 A 
ATOM     38  C   UNL     1     -45.567  40.964  26.823  1.00  0.00     0.150 A 
ATOM     39  C   UNL     1     -43.583  40.832  27.873  1.00  0.00    -0.013 A 
ATOM     40  H   UNL     1     -43.927  38.767  28.608  1.00  0.00     0.083 H 
ATOM     41  C   UNL     1     -44.389  41.670  27.071  1.00  0.00     0.065 A 
ATOM     42  N   UNL     1     -46.608  41.441  26.109  1.00  0.00    -0.218 NA
ATOM     43  C   UNL     1     -44.281  42.952  26.507  1.00  0.00     0.136 A 
ATOM     44  C   UNL     1     -46.392  42.671  25.629  1.00  0.00     0.120 A 
ATOM     45  N   UNL     1     -45.304  43.441  25.787  1.00  0.00    -0.219 NA
ATOM     46  H   UNL     1     -47.196  43.101  25.040  1.00  0.00     0.106 H 
BRANCH  39  47
ATOM     47  C   UNL     1     -42.159  41.146  28.390  1.00  0.00    -0.014 C 
ATOM     48  C   UNL     1     -41.764  40.761  29.792  1.00  0.00    -0.046 C 
ATOM     49  C   UNL     1     -41.989  42.204  29.451  1.00  0.00    -0.046 C 
ATOM     50  H   UNL     1     -41.386  41.077  27.630  1.00  0.00     0.035 H 
ATOM     51  H   UNL     1     -40.745  40.428  29.954  1.00  0.00     0.027 H 
ATOM     52  H   UNL     1     -42.491  40.279  30.436  1.00  0.00     0.027 H 
ATOM     53  H   UNL     1     -41.120  42.848  29.391  1.00  0.00     0.027 H 
ATOM     54  H   UNL     1     -42.873  42.683  29.856  1.00  0.00     0.027 H 
ENDBRANCH  39  47
BRANCH  43  55
ATOM     55  N   UNL     1     -43.177  43.780  26.655  1.00  0.00    -0.383 N 
ATOM     56  H   UNL     1     -43.387  44.687  27.048  1.00  0.00     0.158 HD
ATOM     57  H   UNL     1     -42.622  43.778  25.807  1.00  0.00     0.158 HD
ENDBRANCH  43  55
ENDBRANCH  31  36
ENDBRANCH   1  26
TORSDOF 8
ENDMDL
