MODEL 1
REMARK VINA RESULT:      -9.8      0.000      0.000
REMARK SMILES CNc1ccc2ccc(OC[C@H]3O[C@@H](n4cc([C@H](O)C5CC5)c5c(N)ncnc54)[C@H](O)[C@@H]3O)cc2n1
REMARK SMILES IDX 11 1 10 4 9 5 3 6 4 7 36 8 5 9 35 11 6 12 34 14 7 15 8 17
REMARK SMILES IDX 2 20 1 22 12 26 13 27 32 28 14 30 30 31 33 35 15 37 16 38
REMARK SMILES IDX 29 39 17 40 23 42 28 43 24 44 27 45 26 46 18 48 19 50 20 52
REMARK SMILES IDX 21 53 22 54 25 60 31 63
REMARK H PARENT 11 2 11 3 4 10 5 13 34 16 7 18 8 19 2 21 1 23 1 24 1 25 12 29
REMARK H PARENT 32 32 14 33 30 34 33 36 16 41 27 47 18 49 19 51 20 55 21 56
REMARK H PARENT 21 57 22 58 22 59 25 61 25 62 31 64
REMARK Flexibility Score: inf
ROOT
ATOM      1  C   UNL     1     -46.214  35.533  26.706  1.00  0.00     0.117 C 
ATOM      2  H   UNL     1     -45.495  34.731  26.500  1.00  0.00     0.073 H 
ATOM      3  H   UNL     1     -46.105  36.260  25.894  1.00  0.00     0.073 H 
ENDROOT
BRANCH   1   4
ATOM      4  O   UNL     1     -47.505  34.911  26.670  1.00  0.00    -0.491 OA
BRANCH   4   5
ATOM      5  C   UNL     1     -47.656  33.750  25.966  1.00  0.00     0.121 A 
ATOM      6  C   UNL     1     -46.321  30.369  22.892  1.00  0.00     0.126 A 
ATOM      7  C   UNL     1     -47.517  29.679  23.057  1.00  0.00    -0.019 A 
ATOM      8  N   UNL     1     -46.075  31.522  23.547  1.00  0.00    -0.231 NA
ATOM      9  C   UNL     1     -48.476  30.173  23.934  1.00  0.00    -0.049 A 
ATOM     10  H   UNL     1     -47.709  28.769  22.498  1.00  0.00     0.066 H 
ATOM     11  C   UNL     1     -46.997  32.007  24.398  1.00  0.00     0.076 A 
ATOM     12  C   UNL     1     -48.226  31.359  24.628  1.00  0.00     0.001 A 
ATOM     13  H   UNL     1     -49.411  29.636  24.063  1.00  0.00     0.063 H 
ATOM     14  C   UNL     1     -46.734  33.192  25.076  1.00  0.00     0.007 A 
ATOM     15  C   UNL     1     -49.157  31.905  25.523  1.00  0.00    -0.049 A 
ATOM     16  H   UNL     1     -45.777  33.662  24.876  1.00  0.00     0.069 H 
ATOM     17  C   UNL     1     -48.868  33.096  26.186  1.00  0.00    -0.019 A 
ATOM     18  H   UNL     1     -50.109  31.414  25.706  1.00  0.00     0.063 H 
ATOM     19  H   UNL     1     -49.592  33.521  26.877  1.00  0.00     0.066 H 
BRANCH   6  20
ATOM     20  N   UNL     1     -45.385  29.852  21.978  1.00  0.00    -0.373 N 
ATOM     21  H   UNL     1     -45.858  29.651  21.101  1.00  0.00     0.161 HD
BRANCH  20  22
ATOM     22  C   UNL     1     -44.646  28.700  22.468  1.00  0.00     0.005 C 
ATOM     23  H   UNL     1     -45.261  28.080  23.131  1.00  0.00     0.045 H 
ATOM     24  H   UNL     1     -43.789  29.051  23.053  1.00  0.00     0.045 H 
ATOM     25  H   UNL     1     -44.257  28.090  21.646  1.00  0.00     0.045 H 
ENDBRANCH  20  22
ENDBRANCH   6  20
ENDBRANCH   4   5
ENDBRANCH   1   4
BRANCH   1  26
ATOM     26  C   UNL     1     -45.917  36.125  28.086  1.00  0.00     0.123 C 
ATOM     27  O   UNL     1     -44.778  37.003  28.026  1.00  0.00    -0.345 OA
ATOM     28  C   UNL     1     -47.072  36.973  28.607  1.00  0.00     0.114 C 
ATOM     29  H   UNL     1     -45.669  35.328  28.798  1.00  0.00     0.067 H 
ATOM     30  C   UNL     1     -44.955  38.011  29.044  1.00  0.00     0.164 C 
ATOM     31  C   UNL     1     -46.386  37.901  29.596  1.00  0.00     0.128 C 
ATOM     32  H   UNL     1     -47.527  37.544  27.793  1.00  0.00     0.066 H 
ATOM     33  H   UNL     1     -44.233  37.790  29.839  1.00  0.00     0.088 H 
ATOM     34  H   UNL     1     -46.894  38.864  29.715  1.00  0.00     0.068 H 
BRANCH  28  35
ATOM     35  O   UNL     1     -48.093  36.189  29.224  1.00  0.00    -0.387 OA
ATOM     36  H   UNL     1     -48.305  36.621  30.074  1.00  0.00     0.211 HD
ENDBRANCH  28  35
BRANCH  30  37
ATOM     37  N   UNL     1     -44.582  39.300  28.482  1.00  0.00    -0.303 N 
ATOM     38  C   UNL     1     -45.246  39.907  27.438  1.00  0.00     0.015 A 
ATOM     39  C   UNL     1     -43.547  40.103  28.887  1.00  0.00     0.148 A 
ATOM     40  C   UNL     1     -44.636  41.121  27.159  1.00  0.00     0.012 A 
ATOM     41  H   UNL     1     -46.103  39.429  26.982  1.00  0.00     0.082 H 
ATOM     42  C   UNL     1     -43.557  41.248  28.099  1.00  0.00     0.067 A 
ATOM     43  N   UNL     1     -42.675  39.824  29.871  1.00  0.00    -0.218 NA
ATOM     44  C   UNL     1     -42.573  42.209  28.382  1.00  0.00     0.136 A 
ATOM     45  C   UNL     1     -41.780  40.813  30.040  1.00  0.00     0.120 A 
ATOM     46  N   UNL     1     -41.684  41.971  29.365  1.00  0.00    -0.219 NA
ATOM     47  H   UNL     1     -41.043  40.660  30.821  1.00  0.00     0.106 H 
BRANCH  40  48
ATOM     48  C   UNL     1     -44.996  42.111  26.078  1.00  0.00     0.084 C 
ATOM     49  H   UNL     1     -44.927  43.112  26.522  1.00  0.00     0.066 H 
BRANCH  48  50
ATOM     50  O   UNL     1     -46.362  41.935  25.682  1.00  0.00    -0.388 OA
ATOM     51  H   UNL     1     -46.894  42.249  26.431  1.00  0.00     0.211 HD
ENDBRANCH  48  50
BRANCH  48  52
ATOM     52  C   UNL     1     -44.090  42.091  24.867  1.00  0.00    -0.011 C 
ATOM     53  C   UNL     1     -44.325  43.015  23.695  1.00  0.00    -0.047 C 
ATOM     54  C   UNL     1     -43.087  43.176  24.533  1.00  0.00    -0.047 C 
ATOM     55  H   UNL     1     -43.778  41.074  24.642  1.00  0.00     0.033 H 
ATOM     56  H   UNL     1     -44.221  42.606  22.698  1.00  0.00     0.027 H 
ATOM     57  H   UNL     1     -45.103  43.768  23.783  1.00  0.00     0.027 H 
ATOM     58  H   UNL     1     -42.141  42.871  24.094  1.00  0.00     0.027 H 
ATOM     59  H   UNL     1     -43.009  44.069  25.138  1.00  0.00     0.027 H 
ENDBRANCH  48  52
ENDBRANCH  40  48
BRANCH  44  60
ATOM     60  N   UNL     1     -42.485  43.433  27.722  1.00  0.00    -0.383 N 
ATOM     61  H   UNL     1     -43.337  43.958  27.881  1.00  0.00     0.158 HD
ATOM     62  H   UNL     1     -42.245  43.289  26.741  1.00  0.00     0.158 HD
ENDBRANCH  44  60
ENDBRANCH  30  37
BRANCH  31  63
ATOM     63  O   UNL     1     -46.382  37.278  30.898  1.00  0.00    -0.386 OA
ATOM     64  H   UNL     1     -46.025  37.948  31.511  1.00  0.00     0.211 HD
ENDBRANCH  31  63
ENDBRANCH   1  26
TORSDOF 12
ENDMDL
MODEL 2
REMARK VINA RESULT:      -9.6      3.028     11.573
REMARK SMILES CNc1ccc2ccc(OC[C@H]3O[C@@H](n4cc([C@H](O)C5CC5)c5c(N)ncnc54)[C@H](O)[C@@H]3O)cc2n1
REMARK SMILES IDX 11 1 10 4 9 5 3 6 4 7 36 8 5 9 35 11 6 12 34 14 7 15 8 17
REMARK SMILES IDX 2 20 1 22 12 26 13 27 32 28 14 30 30 31 33 35 15 37 16 38
REMARK SMILES IDX 29 39 17 40 23 42 28 43 24 44 27 45 26 46 18 48 19 50 20 52
REMARK SMILES IDX 21 53 22 54 25 60 31 63
REMARK H PARENT 11 2 11 3 4 10 5 13 34 16 7 18 8 19 2 21 1 23 1 24 1 25 12 29
REMARK H PARENT 32 32 14 33 30 34 33 36 16 41 27 47 18 49 19 51 20 55 21 56
REMARK H PARENT 21 57 22 58 22 59 25 61 25 62 31 64
REMARK Flexibility Score: inf
ROOT
ATOM      1  C   UNL     1     -46.622  33.666  26.015  1.00  0.00     0.117 C 
ATOM      2  H   UNL     1     -45.997  34.363  25.445  1.00  0.00     0.073 H 
ATOM      3  H   UNL     1     -45.956  32.869  26.361  1.00  0.00     0.073 H 
ENDROOT
BRANCH   1   4
ATOM      4  O   UNL     1     -47.136  34.422  27.118  1.00  0.00    -0.491 OA
BRANCH   4   5
ATOM      5  C   UNL     1     -46.597  35.650  27.382  1.00  0.00     0.121 A 
ATOM      6  C   UNL     1     -45.880  40.295  26.626  1.00  0.00     0.126 A 
ATOM      7  C   UNL     1     -44.997  40.381  27.697  1.00  0.00    -0.019 A 
ATOM      8  N   UNL     1     -46.467  39.128  26.289  1.00  0.00    -0.231 NA
ATOM      9  C   UNL     1     -44.728  39.247  28.456  1.00  0.00    -0.049 A 
ATOM     10  H   UNL     1     -44.511  41.322  27.934  1.00  0.00     0.066 H 
ATOM     11  C   UNL     1     -46.213  38.026  27.018  1.00  0.00     0.076 A 
ATOM     12  C   UNL     1     -45.341  38.038  28.123  1.00  0.00     0.001 A 
ATOM     13  H   UNL     1     -44.038  39.314  29.292  1.00  0.00     0.063 H 
ATOM     14  C   UNL     1     -46.828  36.829  26.669  1.00  0.00     0.007 A 
ATOM     15  C   UNL     1     -45.106  36.862  28.851  1.00  0.00    -0.049 A 
ATOM     16  H   UNL     1     -47.495  36.858  25.814  1.00  0.00     0.069 H 
ATOM     17  C   UNL     1     -45.734  35.676  28.477  1.00  0.00    -0.019 A 
ATOM     18  H   UNL     1     -44.434  36.861  29.705  1.00  0.00     0.063 H 
ATOM     19  H   UNL     1     -45.547  34.764  29.039  1.00  0.00     0.066 H 
BRANCH   6  20
ATOM     20  N   UNL     1     -46.109  41.456  25.867  1.00  0.00    -0.373 N 
ATOM     21  H   UNL     1     -46.730  41.227  25.096  1.00  0.00     0.161 HD
BRANCH  20  22
ATOM     22  C   UNL     1     -44.897  42.116  25.406  1.00  0.00     0.005 C 
ATOM     23  H   UNL     1     -44.866  42.182  24.313  1.00  0.00     0.045 H 
ATOM     24  H   UNL     1     -44.031  41.525  25.722  1.00  0.00     0.045 H 
ATOM     25  H   UNL     1     -44.792  43.115  25.841  1.00  0.00     0.045 H 
ENDBRANCH  20  22
ENDBRANCH   6  20
ENDBRANCH   4   5
ENDBRANCH   1   4
BRANCH   1  26
ATOM     26  C   UNL     1     -47.750  33.155  25.113  1.00  0.00     0.123 C 
ATOM     27  O   UNL     1     -47.277  32.095  24.262  1.00  0.00    -0.345 OA
ATOM     28  C   UNL     1     -48.903  32.565  25.915  1.00  0.00     0.114 C 
ATOM     29  H   UNL     1     -48.104  33.959  24.456  1.00  0.00     0.067 H 
ATOM     30  C   UNL     1     -48.396  31.226  23.992  1.00  0.00     0.164 C 
ATOM     31  C   UNL     1     -49.558  31.625  24.916  1.00  0.00     0.128 C 
ATOM     32  H   UNL     1     -48.526  32.010  26.779  1.00  0.00     0.066 H 
ATOM     33  H   UNL     1     -48.681  31.391  22.946  1.00  0.00     0.088 H 
ATOM     34  H   UNL     1     -50.068  30.777  25.385  1.00  0.00     0.068 H 
BRANCH  28  35
ATOM     35  O   UNL     1     -49.808  33.562  26.389  1.00  0.00    -0.387 OA
ATOM     36  H   UNL     1     -49.422  34.428  26.155  1.00  0.00     0.211 HD
ENDBRANCH  28  35
BRANCH  30  37
ATOM     37  N   UNL     1     -47.942  29.848  24.092  1.00  0.00    -0.303 N 
ATOM     38  C   UNL     1     -48.645  28.849  24.730  1.00  0.00     0.015 A 
ATOM     39  C   UNL     1     -46.780  29.327  23.582  1.00  0.00     0.148 A 
ATOM     40  C   UNL     1     -47.934  27.662  24.634  1.00  0.00     0.012 A 
ATOM     41  H   UNL     1     -49.599  29.061  25.195  1.00  0.00     0.082 H 
ATOM     42  C   UNL     1     -46.746  27.972  23.886  1.00  0.00     0.067 A 
ATOM     43  N   UNL     1     -45.840  30.014  22.912  1.00  0.00    -0.218 NA
ATOM     44  C   UNL     1     -45.631  27.256  23.422  1.00  0.00     0.136 A 
ATOM     45  C   UNL     1     -44.822  29.224  22.529  1.00  0.00     0.120 A 
ATOM     46  N   UNL     1     -44.669  27.905  22.740  1.00  0.00    -0.219 NA
ATOM     47  H   UNL     1     -44.023  29.709  21.978  1.00  0.00     0.106 H 
BRANCH  40  48
ATOM     48  C   UNL     1     -48.297  26.316  25.211  1.00  0.00     0.084 C 
ATOM     49  H   UNL     1     -47.814  25.556  24.583  1.00  0.00     0.066 H 
BRANCH  48  50
ATOM     50  O   UNL     1     -49.709  26.097  25.102  1.00  0.00    -0.388 OA
ATOM     51  H   UNL     1     -49.842  25.152  25.284  1.00  0.00     0.211 HD
ENDBRANCH  48  50
BRANCH  48  52
ATOM     52  C   UNL     1     -47.836  26.086  26.633  1.00  0.00    -0.011 C 
ATOM     53  C   UNL     1     -47.293  24.747  27.076  1.00  0.00    -0.047 C 
ATOM     54  C   UNL     1     -46.387  25.947  27.050  1.00  0.00    -0.047 C 
ATOM     55  H   UNL     1     -48.479  26.616  27.331  1.00  0.00     0.033 H 
ATOM     56  H   UNL     1     -47.611  24.365  28.038  1.00  0.00     0.027 H 
ATOM     57  H   UNL     1     -47.147  23.978  26.323  1.00  0.00     0.027 H 
ATOM     58  H   UNL     1     -46.092  26.374  28.003  1.00  0.00     0.027 H 
ATOM     59  H   UNL     1     -45.593  25.952  26.315  1.00  0.00     0.027 H 
ENDBRANCH  48  52
ENDBRANCH  40  48
BRANCH  44  60
ATOM     60  N   UNL     1     -45.477  25.882  23.594  1.00  0.00    -0.383 N 
ATOM     61  H   UNL     1     -45.070  25.486  22.755  1.00  0.00     0.158 HD
ATOM     62  H   UNL     1     -46.359  25.460  23.884  1.00  0.00     0.158 HD
ENDBRANCH  44  60
ENDBRANCH  30  37
BRANCH  31  63
ATOM     63  O   UNL     1     -50.567  32.351  24.182  1.00  0.00    -0.386 OA
ATOM     64  H   UNL     1     -51.185  31.676  23.844  1.00  0.00     0.211 HD
ENDBRANCH  31  63
ENDBRANCH   1  26
TORSDOF 12
ENDMDL
MODEL 3
REMARK VINA RESULT:      -9.4      4.606     12.260
REMARK SMILES CNc1ccc2ccc(OC[C@H]3O[C@@H](n4cc([C@H](O)C5CC5)c5c(N)ncnc54)[C@H](O)[C@@H]3O)cc2n1
REMARK SMILES IDX 11 1 10 4 9 5 3 6 4 7 36 8 5 9 35 11 6 12 34 14 7 15 8 17
REMARK SMILES IDX 2 20 1 22 12 26 13 27 32 28 14 30 30 31 33 35 15 37 16 38
REMARK SMILES IDX 29 39 17 40 23 42 28 43 24 44 27 45 26 46 18 48 19 50 20 52
REMARK SMILES IDX 21 53 22 54 25 60 31 63
REMARK H PARENT 11 2 11 3 4 10 5 13 34 16 7 18 8 19 2 21 1 23 1 24 1 25 12 29
REMARK H PARENT 32 32 14 33 30 34 33 36 16 41 27 47 18 49 19 51 20 55 21 56
REMARK H PARENT 21 57 22 58 22 59 25 61 25 62 31 64
REMARK Flexibility Score: inf
ROOT
ATOM      1  C   UNL     1     -46.057  31.626  22.433  1.00  0.00     0.117 C 
ATOM      2  H   UNL     1     -46.513  32.607  22.257  1.00  0.00     0.073 H 
ATOM      3  H   UNL     1     -45.020  31.702  22.090  1.00  0.00     0.073 H 
ENDROOT
BRANCH   1   4
ATOM      4  O   UNL     1     -46.117  31.421  23.850  1.00  0.00    -0.491 OA
BRANCH   4   5
ATOM      5  C   UNL     1     -46.753  32.351  24.623  1.00  0.00     0.121 A 
ATOM      6  C   UNL     1     -47.103  36.449  27.021  1.00  0.00     0.126 A 
ATOM      7  C   UNL     1     -48.396  36.150  27.436  1.00  0.00    -0.019 A 
ATOM      8  N   UNL     1     -46.395  35.596  26.252  1.00  0.00    -0.231 NA
ATOM      9  C   UNL     1     -48.986  34.957  27.032  1.00  0.00    -0.049 A 
ATOM     10  H   UNL     1     -48.939  36.835  28.080  1.00  0.00     0.066 H 
ATOM     11  C   UNL     1     -46.958  34.440  25.856  1.00  0.00     0.076 A 
ATOM     12  C   UNL     1     -48.267  34.074  26.225  1.00  0.00     0.001 A 
ATOM     13  H   UNL     1     -49.996  34.724  27.357  1.00  0.00     0.063 H 
ATOM     14  C   UNL     1     -46.225  33.570  25.057  1.00  0.00     0.007 A 
ATOM     15  C   UNL     1     -48.810  32.857  25.790  1.00  0.00    -0.049 A 
ATOM     16  H   UNL     1     -45.222  33.885  24.791  1.00  0.00     0.069 H 
ATOM     17  C   UNL     1     -48.051  32.003  24.992  1.00  0.00    -0.019 A 
ATOM     18  H   UNL     1     -49.818  32.565  26.070  1.00  0.00     0.063 H 
ATOM     19  H   UNL     1     -48.471  31.057  24.659  1.00  0.00     0.066 H 
BRANCH   6  20
ATOM     20  N   UNL     1     -46.530  37.653  27.469  1.00  0.00    -0.373 N 
ATOM     21  H   UNL     1     -46.859  37.842  28.412  1.00  0.00     0.161 HD
BRANCH  20  22
ATOM     22  C   UNL     1     -46.752  38.784  26.583  1.00  0.00     0.005 C 
ATOM     23  H   UNL     1     -45.811  39.153  26.159  1.00  0.00     0.045 H 
ATOM     24  H   UNL     1     -47.194  39.604  27.159  1.00  0.00     0.045 H 
ATOM     25  H   UNL     1     -47.449  38.533  25.776  1.00  0.00     0.045 H 
ENDBRANCH  20  22
ENDBRANCH   6  20
ENDBRANCH   4   5
ENDBRANCH   1   4
BRANCH   1  26
ATOM     26  C   UNL     1     -46.860  30.562  21.679  1.00  0.00     0.123 C 
ATOM     27  O   UNL     1     -46.861  29.318  22.405  1.00  0.00    -0.345 OA
ATOM     28  C   UNL     1     -48.324  30.954  21.521  1.00  0.00     0.114 C 
ATOM     29  H   UNL     1     -46.404  30.361  20.702  1.00  0.00     0.067 H 
ATOM     30  C   UNL     1     -48.095  28.638  22.095  1.00  0.00     0.164 C 
ATOM     31  C   UNL     1     -49.013  29.611  21.338  1.00  0.00     0.128 C 
ATOM     32  H   UNL     1     -48.687  31.455  22.423  1.00  0.00     0.066 H 
ATOM     33  H   UNL     1     -47.836  27.792  21.447  1.00  0.00     0.088 H 
ATOM     34  H   UNL     1     -50.052  29.604  21.682  1.00  0.00     0.068 H 
BRANCH  28  35
ATOM     35  O   UNL     1     -48.542  31.825  20.412  1.00  0.00    -0.387 OA
ATOM     36  H   UNL     1     -48.580  32.734  20.769  1.00  0.00     0.211 HD
ENDBRANCH  28  35
BRANCH  30  37
ATOM     37  N   UNL     1     -48.631  28.076  23.326  1.00  0.00    -0.303 N 
ATOM     38  C   UNL     1     -47.903  27.932  24.487  1.00  0.00     0.015 A 
ATOM     39  C   UNL     1     -49.906  27.618  23.532  1.00  0.00     0.148 A 
ATOM     40  C   UNL     1     -48.715  27.373  25.463  1.00  0.00     0.012 A 
ATOM     41  H   UNL     1     -46.868  28.244  24.529  1.00  0.00     0.082 H 
ATOM     42  C   UNL     1     -50.001  27.187  24.849  1.00  0.00     0.067 A 
ATOM     43  N   UNL     1     -50.888  27.589  22.615  1.00  0.00    -0.218 NA
ATOM     44  C   UNL     1     -51.252  26.698  25.258  1.00  0.00     0.136 A 
ATOM     45  C   UNL     1     -52.030  27.094  23.122  1.00  0.00     0.120 A 
ATOM     46  N   UNL     1     -52.265  26.658  24.371  1.00  0.00    -0.219 NA
ATOM     47  H   UNL     1     -52.872  27.042  22.438  1.00  0.00     0.106 H 
BRANCH  40  48
ATOM     48  C   UNL     1     -48.342  27.002  26.878  1.00  0.00     0.084 C 
ATOM     49  H   UNL     1     -49.224  26.533  27.331  1.00  0.00     0.066 H 
BRANCH  48  50
ATOM     50  O   UNL     1     -48.069  28.183  27.642  1.00  0.00    -0.388 OA
ATOM     51  H   UNL     1     -47.559  27.884  28.412  1.00  0.00     0.211 HD
ENDBRANCH  48  50
BRANCH  48  52
ATOM     52  C   UNL     1     -47.196  26.021  26.998  1.00  0.00    -0.011 C 
ATOM     53  C   UNL     1     -47.436  24.529  26.975  1.00  0.00    -0.047 C 
ATOM     54  C   UNL     1     -46.670  25.177  25.855  1.00  0.00    -0.047 C 
ATOM     55  H   UNL     1     -46.448  26.393  27.694  1.00  0.00     0.033 H 
ATOM     56  H   UNL     1     -46.890  23.917  27.683  1.00  0.00     0.027 H 
ATOM     57  H   UNL     1     -48.441  24.173  26.769  1.00  0.00     0.027 H 
ATOM     58  H   UNL     1     -45.600  25.000  25.810  1.00  0.00     0.027 H 
ATOM     59  H   UNL     1     -47.141  25.202  24.882  1.00  0.00     0.027 H 
ENDBRANCH  48  52
ENDBRANCH  40  48
BRANCH  44  60
ATOM     60  N   UNL     1     -51.525  26.282  26.559  1.00  0.00    -0.383 N 
ATOM     61  H   UNL     1     -50.785  25.665  26.872  1.00  0.00     0.158 HD
ATOM     62  H   UNL     1     -52.465  25.890  26.615  1.00  0.00     0.158 HD
ENDBRANCH  44  60
ENDBRANCH  30  37
BRANCH  31  63
ATOM     63  O   UNL     1     -49.046  29.290  19.932  1.00  0.00    -0.386 OA
ATOM     64  H   UNL     1     -48.292  29.765  19.534  1.00  0.00     0.211 HD
ENDBRANCH  31  63
ENDBRANCH   1  26
TORSDOF 12
ENDMDL
MODEL 4
REMARK VINA RESULT:      -9.1      1.559      2.088
REMARK SMILES CNc1ccc2ccc(OC[C@H]3O[C@@H](n4cc([C@H](O)C5CC5)c5c(N)ncnc54)[C@H](O)[C@@H]3O)cc2n1
REMARK SMILES IDX 11 1 10 4 9 5 3 6 4 7 36 8 5 9 35 11 6 12 34 14 7 15 8 17
REMARK SMILES IDX 2 20 1 22 12 26 13 27 32 28 14 30 30 31 33 35 15 37 16 38
REMARK SMILES IDX 29 39 17 40 23 42 28 43 24 44 27 45 26 46 18 48 19 50 20 52
REMARK SMILES IDX 21 53 22 54 25 60 31 63
REMARK H PARENT 11 2 11 3 4 10 5 13 34 16 7 18 8 19 2 21 1 23 1 24 1 25 12 29
REMARK H PARENT 32 32 14 33 30 34 33 36 16 41 27 47 18 49 19 51 20 55 21 56
REMARK H PARENT 21 57 22 58 22 59 25 61 25 62 31 64
REMARK Flexibility Score: inf
ROOT
ATOM      1  C   UNL     1     -47.133  36.042  26.602  1.00  0.00     0.117 C 
ATOM      2  H   UNL     1     -46.493  35.772  25.753  1.00  0.00     0.073 H 
ATOM      3  H   UNL     1     -47.776  36.858  26.255  1.00  0.00     0.073 H 
ENDROOT
BRANCH   1   4
ATOM      4  O   UNL     1     -47.901  34.869  26.894  1.00  0.00    -0.491 OA
BRANCH   4   5
ATOM      5  C   UNL     1     -47.753  33.770  26.094  1.00  0.00     0.121 A 
ATOM      6  C   UNL     1     -49.176  29.732  24.014  1.00  0.00     0.126 A 
ATOM      7  C   UNL     1     -47.939  29.553  23.406  1.00  0.00    -0.019 A 
ATOM      8  N   UNL     1     -49.422  30.787  24.816  1.00  0.00    -0.231 NA
ATOM      9  C   UNL     1     -46.934  30.493  23.608  1.00  0.00    -0.049 A 
ATOM     10  H   UNL     1     -47.751  28.681  22.788  1.00  0.00     0.066 H 
ATOM     11  C   UNL     1     -48.456  31.702  25.018  1.00  0.00     0.076 A 
ATOM     12  C   UNL     1     -47.182  31.597  24.427  1.00  0.00     0.001 A 
ATOM     13  H   UNL     1     -45.967  30.354  23.134  1.00  0.00     0.063 H 
ATOM     14  C   UNL     1     -48.719  32.792  25.841  1.00  0.00     0.007 A 
ATOM     15  C   UNL     1     -46.207  32.575  24.669  1.00  0.00    -0.049 A 
ATOM     16  H   UNL     1     -49.710  32.842  26.277  1.00  0.00     0.069 H 
ATOM     17  C   UNL     1     -46.497  33.655  25.500  1.00  0.00    -0.019 A 
ATOM     18  H   UNL     1     -45.221  32.502  24.219  1.00  0.00     0.063 H 
ATOM     19  H   UNL     1     -45.739  34.411  25.691  1.00  0.00     0.066 H 
BRANCH   6  20
ATOM     20  N   UNL     1     -50.160  28.747  23.806  1.00  0.00    -0.373 N 
ATOM     21  H   UNL     1     -50.650  28.584  24.681  1.00  0.00     0.161 HD
BRANCH  20  22
ATOM     22  C   UNL     1     -49.653  27.511  23.231  1.00  0.00     0.005 C 
ATOM     23  H   UNL     1     -49.711  26.683  23.945  1.00  0.00     0.045 H 
ATOM     24  H   UNL     1     -48.598  27.647  22.973  1.00  0.00     0.045 H 
ATOM     25  H   UNL     1     -50.187  27.246  22.312  1.00  0.00     0.045 H 
ENDBRANCH  20  22
ENDBRANCH   6  20
ENDBRANCH   4   5
ENDBRANCH   1   4
BRANCH   1  26
ATOM     26  C   UNL     1     -46.247  36.440  27.786  1.00  0.00     0.123 C 
ATOM     27  O   UNL     1     -45.159  37.275  27.348  1.00  0.00    -0.345 OA
ATOM     28  C   UNL     1     -47.009  37.255  28.823  1.00  0.00     0.114 C 
ATOM     29  H   UNL     1     -45.801  35.548  28.244  1.00  0.00     0.067 H 
ATOM     30  C   UNL     1     -44.816  38.148  28.444  1.00  0.00     0.164 C 
ATOM     31  C   UNL     1     -45.900  38.021  29.527  1.00  0.00     0.128 C 
ATOM     32  H   UNL     1     -47.705  37.943  28.336  1.00  0.00     0.066 H 
ATOM     33  H   UNL     1     -43.855  37.798  28.839  1.00  0.00     0.088 H 
ATOM     34  H   UNL     1     -46.229  38.978  29.944  1.00  0.00     0.068 H 
BRANCH  28  35
ATOM     35  O   UNL     1     -47.753  36.437  29.726  1.00  0.00    -0.387 OA
ATOM     36  H   UNL     1     -47.125  36.120  30.403  1.00  0.00     0.211 HD
ENDBRANCH  28  35
BRANCH  30  37
ATOM     37  N   UNL     1     -44.593  39.484  27.913  1.00  0.00    -0.303 N 
ATOM     38  C   UNL     1     -45.293  40.019  26.853  1.00  0.00     0.015 A 
ATOM     39  C   UNL     1     -43.685  40.406  28.366  1.00  0.00     0.148 A 
ATOM     40  C   UNL     1     -44.836  41.306  26.612  1.00  0.00     0.012 A 
ATOM     41  H   UNL     1     -46.065  39.443  26.359  1.00  0.00     0.082 H 
ATOM     42  C   UNL     1     -43.815  41.554  27.593  1.00  0.00     0.067 A 
ATOM     43  N   UNL     1     -42.819  40.225  29.377  1.00  0.00    -0.218 NA
ATOM     44  C   UNL     1     -42.975  42.628  27.925  1.00  0.00     0.136 A 
ATOM     45  C   UNL     1     -42.066  41.317  29.592  1.00  0.00     0.120 A 
ATOM     46  N   UNL     1     -42.097  42.490  28.936  1.00  0.00    -0.219 NA
ATOM     47  H   UNL     1     -41.343  41.247  30.398  1.00  0.00     0.106 H 
BRANCH  40  48
ATOM     48  C   UNL     1     -45.283  42.260  25.532  1.00  0.00     0.084 C 
ATOM     49  H   UNL     1     -45.939  41.697  24.856  1.00  0.00     0.066 H 
BRANCH  48  50
ATOM     50  O   UNL     1     -44.159  42.683  24.751  1.00  0.00    -0.388 OA
ATOM     51  H   UNL     1     -43.733  43.388  25.265  1.00  0.00     0.211 HD
ENDBRANCH  48  50
BRANCH  48  52
ATOM     52  C   UNL     1     -46.063  43.460  26.024  1.00  0.00    -0.011 C 
ATOM     53  C   UNL     1     -46.201  44.706  25.180  1.00  0.00    -0.047 C 
ATOM     54  C   UNL     1     -47.417  43.876  25.487  1.00  0.00    -0.047 C 
ATOM     55  H   UNL     1     -45.916  43.597  27.092  1.00  0.00     0.033 H 
ATOM     56  H   UNL     1     -46.096  45.665  25.672  1.00  0.00     0.027 H 
ATOM     57  H   UNL     1     -45.811  44.685  24.167  1.00  0.00     0.027 H 
ATOM     58  H   UNL     1     -48.136  44.282  26.192  1.00  0.00     0.027 H 
ATOM     59  H   UNL     1     -47.878  43.347  24.664  1.00  0.00     0.027 H 
ENDBRANCH  48  52
ENDBRANCH  40  48
BRANCH  44  60
ATOM     60  N   UNL     1     -43.022  43.864  27.284  1.00  0.00    -0.383 N 
ATOM     61  H   UNL     1     -42.082  44.236  27.210  1.00  0.00     0.158 HD
ATOM     62  H   UNL     1     -43.692  44.478  27.749  1.00  0.00     0.158 HD
ENDBRANCH  44  60
ENDBRANCH  30  37
BRANCH  31  63
ATOM     63  O   UNL     1     -45.420  37.235  30.638  1.00  0.00    -0.386 OA
ATOM     64  H   UNL     1     -45.565  36.303  30.385  1.00  0.00     0.211 HD
ENDBRANCH  31  63
ENDBRANCH   1  26
TORSDOF 12
ENDMDL
MODEL 5
REMARK VINA RESULT:      -8.7      1.969      2.856
REMARK SMILES CNc1ccc2ccc(OC[C@H]3O[C@@H](n4cc([C@H](O)C5CC5)c5c(N)ncnc54)[C@H](O)[C@@H]3O)cc2n1
REMARK SMILES IDX 11 1 10 4 9 5 3 6 4 7 36 8 5 9 35 11 6 12 34 14 7 15 8 17
REMARK SMILES IDX 2 20 1 22 12 26 13 27 32 28 14 30 30 31 33 35 15 37 16 38
REMARK SMILES IDX 29 39 17 40 23 42 28 43 24 44 27 45 26 46 18 48 19 50 20 52
REMARK SMILES IDX 21 53 22 54 25 60 31 63
REMARK H PARENT 11 2 11 3 4 10 5 13 34 16 7 18 8 19 2 21 1 23 1 24 1 25 12 29
REMARK H PARENT 32 32 14 33 30 34 33 36 16 41 27 47 18 49 19 51 20 55 21 56
REMARK H PARENT 21 57 22 58 22 59 25 61 25 62 31 64
REMARK Flexibility Score: inf
ROOT
ATOM      1  C   UNL     1     -46.324  33.861  27.057  1.00  0.00     0.117 C 
ATOM      2  H   UNL     1     -45.332  33.729  27.505  1.00  0.00     0.073 H 
ATOM      3  H   UNL     1     -46.154  34.218  26.036  1.00  0.00     0.073 H 
ENDROOT
BRANCH   1   4
ATOM      4  O   UNL     1     -46.923  32.560  27.055  1.00  0.00    -0.491 OA
BRANCH   4   5
ATOM      5  C   UNL     1     -47.198  31.964  25.856  1.00  0.00     0.121 A 
ATOM      6  C   UNL     1     -49.704  29.218  22.883  1.00  0.00     0.126 A 
ATOM      7  C   UNL     1     -48.808  29.442  21.844  1.00  0.00    -0.019 A 
ATOM      8  N   UNL     1     -49.522  29.765  24.102  1.00  0.00    -0.231 NA
ATOM      9  C   UNL     1     -47.709  30.268  22.055  1.00  0.00    -0.049 A 
ATOM     10  H   UNL     1     -48.956  28.968  20.879  1.00  0.00     0.066 H 
ATOM     11  C   UNL     1     -48.462  30.565  24.315  1.00  0.00     0.076 A 
ATOM     12  C   UNL     1     -47.518  30.850  23.310  1.00  0.00     0.001 A 
ATOM     13  H   UNL     1     -47.008  30.443  21.244  1.00  0.00     0.063 H 
ATOM     14  C   UNL     1     -48.284  31.132  25.572  1.00  0.00     0.007 A 
ATOM     15  C   UNL     1     -46.428  31.689  23.580  1.00  0.00    -0.049 A 
ATOM     16  H   UNL     1     -49.031  30.893  26.321  1.00  0.00     0.069 H 
ATOM     17  C   UNL     1     -46.274  32.241  24.850  1.00  0.00    -0.019 A 
ATOM     18  H   UNL     1     -45.693  31.913  22.811  1.00  0.00     0.063 H 
ATOM     19  H   UNL     1     -45.425  32.888  25.060  1.00  0.00     0.066 H 
BRANCH   6  20
ATOM     20  N   UNL     1     -50.791  28.358  22.641  1.00  0.00    -0.373 N 
ATOM     21  H   UNL     1     -50.853  28.182  21.641  1.00  0.00     0.161 HD
BRANCH  20  22
ATOM     22  C   UNL     1     -52.055  28.825  23.186  1.00  0.00     0.005 C 
ATOM     23  H   UNL     1     -51.912  29.356  24.134  1.00  0.00     0.045 H 
ATOM     24  H   UNL     1     -52.694  27.960  23.390  1.00  0.00     0.045 H 
ATOM     25  H   UNL     1     -52.586  29.469  22.477  1.00  0.00     0.045 H 
ENDBRANCH  20  22
ENDBRANCH   6  20
ENDBRANCH   4   5
ENDBRANCH   1   4
BRANCH   1  26
ATOM     26  C   UNL     1     -47.129  34.846  27.910  1.00  0.00     0.123 C 
ATOM     27  O   UNL     1     -46.267  35.853  28.471  1.00  0.00    -0.345 OA
ATOM     28  C   UNL     1     -48.170  35.597  27.089  1.00  0.00     0.114 C 
ATOM     29  H   UNL     1     -47.600  34.324  28.752  1.00  0.00     0.067 H 
ATOM     30  C   UNL     1     -47.051  37.054  28.631  1.00  0.00     0.164 C 
ATOM     31  C   UNL     1     -48.394  36.859  27.907  1.00  0.00     0.128 C 
ATOM     32  H   UNL     1     -47.776  35.842  26.100  1.00  0.00     0.066 H 
ATOM     33  H   UNL     1     -47.224  37.179  29.706  1.00  0.00     0.088 H 
ATOM     34  H   UNL     1     -48.705  37.719  27.305  1.00  0.00     0.068 H 
BRANCH  28  35
ATOM     35  O   UNL     1     -49.374  34.850  26.914  1.00  0.00    -0.387 OA
ATOM     36  H   UNL     1     -49.132  33.906  26.978  1.00  0.00     0.211 HD
ENDBRANCH  28  35
BRANCH  30  37
ATOM     37  N   UNL     1     -46.247  38.187  28.198  1.00  0.00    -0.303 N 
ATOM     38  C   UNL     1     -46.526  38.947  27.083  1.00  0.00     0.015 A 
ATOM     39  C   UNL     1     -45.121  38.675  28.808  1.00  0.00     0.148 A 
ATOM     40  C   UNL     1     -45.569  39.945  26.965  1.00  0.00     0.012 A 
ATOM     41  H   UNL     1     -47.386  38.722  26.466  1.00  0.00     0.082 H 
ATOM     42  C   UNL     1     -44.680  39.774  28.081  1.00  0.00     0.067 A 
ATOM     43  N   UNL     1     -44.545  38.172  29.913  1.00  0.00    -0.218 NA
ATOM     44  C   UNL     1     -43.537  40.428  28.570  1.00  0.00     0.136 A 
ATOM     45  C   UNL     1     -43.460  38.876  30.276  1.00  0.00     0.120 A 
ATOM     46  N   UNL     1     -42.934  39.960  29.678  1.00  0.00    -0.219 NA
ATOM     47  H   UNL     1     -42.942  38.530  31.165  1.00  0.00     0.106 H 
BRANCH  40  48
ATOM     48  C   UNL     1     -45.449  40.990  25.883  1.00  0.00     0.084 C 
ATOM     49  H   UNL     1     -46.214  40.763  25.130  1.00  0.00     0.066 H 
BRANCH  48  50
ATOM     50  O   UNL     1     -44.182  40.876  25.225  1.00  0.00    -0.388 OA
ATOM     51  H   UNL     1     -44.020  39.923  25.133  1.00  0.00     0.211 HD
ENDBRANCH  48  50
BRANCH  48  52
ATOM     52  C   UNL     1     -45.678  42.413  26.343  1.00  0.00    -0.011 C 
ATOM     53  C   UNL     1     -45.376  43.587  25.441  1.00  0.00    -0.047 C 
ATOM     54  C   UNL     1     -46.797  43.303  25.843  1.00  0.00    -0.047 C 
ATOM     55  H   UNL     1     -45.426  42.518  27.395  1.00  0.00     0.033 H 
ATOM     56  H   UNL     1     -44.881  44.447  25.876  1.00  0.00     0.027 H 
ATOM     57  H   UNL     1     -45.084  43.385  24.415  1.00  0.00     0.027 H 
ATOM     58  H   UNL     1     -47.261  43.978  26.555  1.00  0.00     0.027 H 
ATOM     59  H   UNL     1     -47.473  42.967  25.069  1.00  0.00     0.027 H 
ENDBRANCH  48  52
ENDBRANCH  40  48
BRANCH  44  60
ATOM     60  N   UNL     1     -43.004  41.576  27.989  1.00  0.00    -0.383 N 
ATOM     61  H   UNL     1     -42.074  41.734  28.358  1.00  0.00     0.158 HD
ATOM     62  H   UNL     1     -43.648  42.360  28.098  1.00  0.00     0.158 HD
ENDBRANCH  44  60
ENDBRANCH  30  37
BRANCH  31  63
ATOM     63  O   UNL     1     -49.454  36.621  28.857  1.00  0.00    -0.386 OA
ATOM     64  H   UNL     1     -49.775  37.504  29.122  1.00  0.00     0.211 HD
ENDBRANCH  31  63
ENDBRANCH   1  26
TORSDOF 12
ENDMDL
MODEL 6
REMARK VINA RESULT:      -8.6      2.513      3.603
REMARK SMILES CNc1ccc2ccc(OC[C@H]3O[C@@H](n4cc([C@H](O)C5CC5)c5c(N)ncnc54)[C@H](O)[C@@H]3O)cc2n1
REMARK SMILES IDX 11 1 10 4 9 5 3 6 4 7 36 8 5 9 35 11 6 12 34 14 7 15 8 17
REMARK SMILES IDX 2 20 1 22 12 26 13 27 32 28 14 30 30 31 33 35 15 37 16 38
REMARK SMILES IDX 29 39 17 40 23 42 28 43 24 44 27 45 26 46 18 48 19 50 20 52
REMARK SMILES IDX 21 53 22 54 25 60 31 63
REMARK H PARENT 11 2 11 3 4 10 5 13 34 16 7 18 8 19 2 21 1 23 1 24 1 25 12 29
REMARK H PARENT 32 32 14 33 30 34 33 36 16 41 27 47 18 49 19 51 20 55 21 56
REMARK H PARENT 21 57 22 58 22 59 25 61 25 62 31 64
REMARK Flexibility Score: inf
ROOT
ATOM      1  C   UNL     1     -45.402  35.186  27.268  1.00  0.00     0.117 C 
ATOM      2  H   UNL     1     -45.314  34.173  27.680  1.00  0.00     0.073 H 
ATOM      3  H   UNL     1     -44.664  35.255  26.462  1.00  0.00     0.073 H 
ENDROOT
BRANCH   1   4
ATOM      4  O   UNL     1     -46.736  35.279  26.754  1.00  0.00    -0.491 OA
BRANCH   4   5
ATOM      5  C   UNL     1     -47.267  34.201  26.102  1.00  0.00     0.121 A 
ATOM      6  C   UNL     1     -47.230  30.603  22.985  1.00  0.00     0.126 A 
ATOM      7  C   UNL     1     -48.537  30.251  23.305  1.00  0.00    -0.019 A 
ATOM      8  N   UNL     1     -46.617  31.649  23.578  1.00  0.00    -0.231 NA
ATOM      9  C   UNL     1     -49.224  30.974  24.274  1.00  0.00    -0.049 A 
ATOM     10  H   UNL     1     -49.023  29.425  22.796  1.00  0.00     0.066 H 
ATOM     11  C   UNL     1     -47.274  32.354  24.516  1.00  0.00     0.076 A 
ATOM     12  C   UNL     1     -48.593  32.050  24.902  1.00  0.00     0.001 A 
ATOM     13  H   UNL     1     -50.244  30.700  24.523  1.00  0.00     0.063 H 
ATOM     14  C   UNL     1     -46.633  33.426  25.128  1.00  0.00     0.007 A 
ATOM     15  C   UNL     1     -49.238  32.817  25.884  1.00  0.00    -0.049 A 
ATOM     16  H   UNL     1     -45.618  33.630  24.807  1.00  0.00     0.069 H 
ATOM     17  C   UNL     1     -48.572  33.886  26.478  1.00  0.00    -0.019 A 
ATOM     18  H   UNL     1     -50.256  32.591  26.188  1.00  0.00     0.063 H 
ATOM     19  H   UNL     1     -49.074  34.484  27.236  1.00  0.00     0.066 H 
BRANCH   6  20
ATOM     20  N   UNL     1     -46.575  29.864  21.984  1.00  0.00    -0.373 N 
ATOM     21  H   UNL     1     -47.158  29.071  21.728  1.00  0.00     0.161 HD
BRANCH  20  22
ATOM     22  C   UNL     1     -45.226  29.452  22.333  1.00  0.00     0.005 C 
ATOM     23  H   UNL     1     -45.090  28.372  22.208  1.00  0.00     0.045 H 
ATOM     24  H   UNL     1     -45.047  29.683  23.389  1.00  0.00     0.045 H 
ATOM     25  H   UNL     1     -44.475  29.991  21.745  1.00  0.00     0.045 H 
ENDBRANCH  20  22
ENDBRANCH   6  20
ENDBRANCH   4   5
ENDBRANCH   1   4
BRANCH   1  26
ATOM     26  C   UNL     1     -45.162  36.202  28.389  1.00  0.00     0.123 C 
ATOM     27  O   UNL     1     -45.040  37.531  27.851  1.00  0.00    -0.345 OA
ATOM     28  C   UNL     1     -46.324  36.254  29.374  1.00  0.00     0.114 C 
ATOM     29  H   UNL     1     -44.222  35.980  28.909  1.00  0.00     0.067 H 
ATOM     30  C   UNL     1     -45.512  38.450  28.858  1.00  0.00     0.164 C 
ATOM     31  C   UNL     1     -46.188  37.642  29.978  1.00  0.00     0.128 C 
ATOM     32  H   UNL     1     -47.278  36.152  28.848  1.00  0.00     0.066 H 
ATOM     33  H   UNL     1     -44.630  38.966  29.255  1.00  0.00     0.088 H 
ATOM     34  H   UNL     1     -47.140  38.063  30.321  1.00  0.00     0.068 H 
BRANCH  28  35
ATOM     35  O   UNL     1     -46.252  35.227  30.363  1.00  0.00    -0.387 OA
ATOM     36  H   UNL     1     -46.764  35.541  31.134  1.00  0.00     0.211 HD
ENDBRANCH  28  35
BRANCH  30  37
ATOM     37  N   UNL     1     -46.335  39.459  28.209  1.00  0.00    -0.303 N 
ATOM     38  C   UNL     1     -47.703  39.544  28.349  1.00  0.00     0.015 A 
ATOM     39  C   UNL     1     -45.901  40.464  27.383  1.00  0.00     0.148 A 
ATOM     40  C   UNL     1     -48.168  40.619  27.605  1.00  0.00     0.012 A 
ATOM     41  H   UNL     1     -48.236  38.838  28.972  1.00  0.00     0.082 H 
ATOM     42  C   UNL     1     -47.008  41.212  26.999  1.00  0.00     0.067 A 
ATOM     43  N   UNL     1     -44.629  40.680  27.009  1.00  0.00    -0.218 NA
ATOM     44  C   UNL     1     -46.758  42.310  26.160  1.00  0.00     0.136 A 
ATOM     45  C   UNL     1     -44.520  41.750  26.203  1.00  0.00     0.120 A 
ATOM     46  N   UNL     1     -45.496  42.565  25.768  1.00  0.00    -0.219 NA
ATOM     47  H   UNL     1     -43.518  41.989  25.861  1.00  0.00     0.106 H 
BRANCH  40  48
ATOM     48  C   UNL     1     -49.596  41.075  27.429  1.00  0.00     0.084 C 
ATOM     49  H   UNL     1     -49.770  41.180  26.351  1.00  0.00     0.066 H 
BRANCH  48  50
ATOM     50  O   UNL     1     -49.771  42.377  27.999  1.00  0.00    -0.388 OA
ATOM     51  H   UNL     1     -50.718  42.448  28.203  1.00  0.00     0.211 HD
ENDBRANCH  48  50
BRANCH  48  52
ATOM     52  C   UNL     1     -50.640  40.120  27.964  1.00  0.00    -0.011 C 
ATOM     53  C   UNL     1     -51.831  40.620  28.749  1.00  0.00    -0.047 C 
ATOM     54  C   UNL     1     -52.040  39.984  27.403  1.00  0.00    -0.047 C 
ATOM     55  H   UNL     1     -50.175  39.197  28.302  1.00  0.00     0.033 H 
ATOM     56  H   UNL     1     -52.126  40.064  29.631  1.00  0.00     0.027 H 
ATOM     57  H   UNL     1     -51.975  41.692  28.836  1.00  0.00     0.027 H 
ATOM     58  H   UNL     1     -52.480  38.991  27.379  1.00  0.00     0.027 H 
ATOM     59  H   UNL     1     -52.384  40.623  26.600  1.00  0.00     0.027 H 
ENDBRANCH  48  52
ENDBRANCH  40  48
BRANCH  44  60
ATOM     60  N   UNL     1     -47.750  43.190  25.735  1.00  0.00    -0.383 N 
ATOM     61  H   UNL     1     -48.635  42.918  26.146  1.00  0.00     0.158 HD
ATOM     62  H   UNL     1     -47.752  43.256  24.716  1.00  0.00     0.158 HD
ENDBRANCH  44  60
ENDBRANCH  30  37
BRANCH  31  63
ATOM     63  O   UNL     1     -45.334  37.566  31.138  1.00  0.00    -0.386 OA
ATOM     64  H   UNL     1     -44.422  37.647  30.801  1.00  0.00     0.211 HD
ENDBRANCH  31  63
ENDBRANCH   1  26
TORSDOF 12
ENDMDL
MODEL 7
REMARK VINA RESULT:      -8.6      1.820      2.705
REMARK SMILES CNc1ccc2ccc(OC[C@H]3O[C@@H](n4cc([C@H](O)C5CC5)c5c(N)ncnc54)[C@H](O)[C@@H]3O)cc2n1
REMARK SMILES IDX 11 1 10 4 9 5 3 6 4 7 36 8 5 9 35 11 6 12 34 14 7 15 8 17
REMARK SMILES IDX 2 20 1 22 12 26 13 27 32 28 14 30 30 31 33 35 15 37 16 38
REMARK SMILES IDX 29 39 17 40 23 42 28 43 24 44 27 45 26 46 18 48 19 50 20 52
REMARK SMILES IDX 21 53 22 54 25 60 31 63
REMARK H PARENT 11 2 11 3 4 10 5 13 34 16 7 18 8 19 2 21 1 23 1 24 1 25 12 29
REMARK H PARENT 32 32 14 33 30 34 33 36 16 41 27 47 18 49 19 51 20 55 21 56
REMARK H PARENT 21 57 22 58 22 59 25 61 25 62 31 64
REMARK Flexibility Score: inf
ROOT
ATOM      1  C   UNL     1     -46.861  36.378  27.754  1.00  0.00     0.117 C 
ATOM      2  H   UNL     1     -47.637  37.139  27.612  1.00  0.00     0.073 H 
ATOM      3  H   UNL     1     -47.303  35.601  28.387  1.00  0.00     0.073 H 
ENDROOT
BRANCH   1   4
ATOM      4  O   UNL     1     -46.574  35.872  26.444  1.00  0.00    -0.491 OA
BRANCH   4   5
ATOM      5  C   UNL     1     -47.114  34.674  26.069  1.00  0.00     0.121 A 
ATOM      6  C   UNL     1     -47.138  30.464  23.846  1.00  0.00     0.126 A 
ATOM      7  C   UNL     1     -48.432  30.191  24.275  1.00  0.00    -0.019 A 
ATOM      8  N   UNL     1     -46.516  31.617  24.169  1.00  0.00    -0.231 NA
ATOM      9  C   UNL     1     -49.097  31.115  25.075  1.00  0.00    -0.049 A 
ATOM     10  H   UNL     1     -48.927  29.272  23.980  1.00  0.00     0.066 H 
ATOM     11  C   UNL     1     -47.152  32.516  24.942  1.00  0.00     0.076 A 
ATOM     12  C   UNL     1     -48.458  32.306  25.425  1.00  0.00     0.001 A 
ATOM     13  H   UNL     1     -50.108  30.903  25.409  1.00  0.00     0.063 H 
ATOM     14  C   UNL     1     -46.502  33.699  25.277  1.00  0.00     0.007 A 
ATOM     15  C   UNL     1     -49.080  33.274  26.226  1.00  0.00    -0.049 A 
ATOM     16  H   UNL     1     -45.498  33.826  24.889  1.00  0.00     0.069 H 
ATOM     17  C   UNL     1     -48.406  34.451  26.544  1.00  0.00    -0.019 A 
ATOM     18  H   UNL     1     -50.088  33.121  26.603  1.00  0.00     0.063 H 
ATOM     19  H   UNL     1     -48.891  35.204  27.161  1.00  0.00     0.066 H 
BRANCH   6  20
ATOM     20  N   UNL     1     -46.506  29.518  23.019  1.00  0.00    -0.373 N 
ATOM     21  H   UNL     1     -46.199  28.736  23.591  1.00  0.00     0.161 HD
BRANCH  20  22
ATOM     22  C   UNL     1     -45.421  30.058  22.217  1.00  0.00     0.005 C 
ATOM     23  H   UNL     1     -45.464  31.152  22.166  1.00  0.00     0.045 H 
ATOM     24  H   UNL     1     -45.515  29.680  21.193  1.00  0.00     0.045 H 
ATOM     25  H   UNL     1     -44.442  29.744  22.597  1.00  0.00     0.045 H 
ENDBRANCH  20  22
ENDBRANCH   6  20
ENDBRANCH   4   5
ENDBRANCH   1   4
BRANCH   1  26
ATOM     26  C   UNL     1     -45.628  37.035  28.382  1.00  0.00     0.123 C 
ATOM     27  O   UNL     1     -44.958  37.875  27.424  1.00  0.00    -0.345 OA
ATOM     28  C   UNL     1     -45.996  37.943  29.550  1.00  0.00     0.114 C 
ATOM     29  H   UNL     1     -44.908  36.270  28.697  1.00  0.00     0.067 H 
ATOM     30  C   UNL     1     -44.318  38.940  28.157  1.00  0.00     0.164 C 
ATOM     31  C   UNL     1     -44.818  38.903  29.610  1.00  0.00     0.128 C 
ATOM     32  H   UNL     1     -46.924  38.482  29.340  1.00  0.00     0.066 H 
ATOM     33  H   UNL     1     -43.240  38.741  28.130  1.00  0.00     0.088 H 
ATOM     34  H   UNL     1     -45.077  39.885  30.020  1.00  0.00     0.068 H 
BRANCH  28  35
ATOM     35  O   UNL     1     -46.167  37.224  30.771  1.00  0.00    -0.387 OA
ATOM     36  H   UNL     1     -46.424  36.313  30.529  1.00  0.00     0.211 HD
ENDBRANCH  28  35
BRANCH  30  37
ATOM     37  N   UNL     1     -44.534  40.186  27.437  1.00  0.00    -0.303 N 
ATOM     38  C   UNL     1     -43.518  40.980  26.950  1.00  0.00     0.015 A 
ATOM     39  C   UNL     1     -45.742  40.757  27.128  1.00  0.00     0.148 A 
ATOM     40  C   UNL     1     -44.071  42.082  26.314  1.00  0.00     0.012 A 
ATOM     41  H   UNL     1     -42.484  40.694  27.088  1.00  0.00     0.082 H 
ATOM     42  C   UNL     1     -45.496  41.927  26.420  1.00  0.00     0.067 A 
ATOM     43  N   UNL     1     -46.949  40.269  27.459  1.00  0.00    -0.218 NA
ATOM     44  C   UNL     1     -46.623  42.647  25.993  1.00  0.00     0.136 A 
ATOM     45  C   UNL     1     -47.945  41.048  27.004  1.00  0.00     0.120 A 
ATOM     46  N   UNL     1     -47.851  42.188  26.298  1.00  0.00    -0.219 NA
ATOM     47  H   UNL     1     -48.953  40.715  27.230  1.00  0.00     0.106 H 
BRANCH  40  48
ATOM     48  C   UNL     1     -43.347  43.235  25.662  1.00  0.00     0.084 C 
ATOM     49  H   UNL     1     -42.298  43.178  25.981  1.00  0.00     0.066 H 
BRANCH  48  50
ATOM     50  O   UNL     1     -43.856  44.480  26.155  1.00  0.00    -0.388 OA
ATOM     51  H   UNL     1     -43.106  44.916  26.591  1.00  0.00     0.211 HD
ENDBRANCH  48  50
BRANCH  48  52
ATOM     52  C   UNL     1     -43.360  43.222  24.149  1.00  0.00    -0.011 C 
ATOM     53  C   UNL     1     -43.391  44.507  23.355  1.00  0.00    -0.047 C 
ATOM     54  C   UNL     1     -42.182  43.616  23.282  1.00  0.00    -0.047 C 
ATOM     55  H   UNL     1     -43.962  42.395  23.781  1.00  0.00     0.033 H 
ATOM     56  H   UNL     1     -44.047  44.554  22.493  1.00  0.00     0.027 H 
ATOM     57  H   UNL     1     -43.303  45.446  23.892  1.00  0.00     0.027 H 
ATOM     58  H   UNL     1     -42.023  43.059  22.364  1.00  0.00     0.027 H 
ATOM     59  H   UNL     1     -41.265  43.987  23.721  1.00  0.00     0.027 H 
ENDBRANCH  48  52
ENDBRANCH  40  48
BRANCH  44  60
ATOM     60  N   UNL     1     -46.546  43.807  25.225  1.00  0.00    -0.383 N 
ATOM     61  H   UNL     1     -46.131  44.546  25.781  1.00  0.00     0.158 HD
ATOM     62  H   UNL     1     -47.459  44.029  24.828  1.00  0.00     0.158 HD
ENDBRANCH  44  60
ENDBRANCH  30  37
BRANCH  31  63
ATOM     63  O   UNL     1     -43.809  38.351  30.482  1.00  0.00    -0.386 OA
ATOM     64  H   UNL     1     -43.843  37.384  30.348  1.00  0.00     0.211 HD
ENDBRANCH  31  63
ENDBRANCH   1  26
TORSDOF 12
ENDMDL
