MODEL 1
REMARK VINA RESULT:      -9.4      0.000      0.000
REMARK SMILES CCc1cc(NCCOC)c2ccc(OCc3cncc(-c4c[nH]c5c(N)ncnc45)c3)cc2n1
REMARK SMILES IDX 3 1 4 2 5 3 11 4 12 5 13 6 14 7 33 8 34 9 35 10 2 15 1 18
REMARK SMILES IDX 6 22 7 24 8 27 9 30 10 31 15 35 16 36 17 39 18 40 32 41
REMARK SMILES IDX 19 42 21 44 20 46 22 48 23 49 31 50 24 51 25 53 30 54 26 56
REMARK SMILES IDX 29 57 28 58 27 60
REMARK H PARENT 4 11 12 12 13 13 33 14 2 16 2 17 1 19 1 20 1 21 6 23 7 25 7 26
REMARK H PARENT 8 28 8 29 10 32 10 33 10 34 16 37 16 38 18 43 32 45 20 47
REMARK H PARENT 23 52 24 55 29 59 27 61 27 62
REMARK Flexibility Score: inf
ROOT
ATOM      1  C   UNL     1     -46.406  30.908  22.314  1.00  0.00     0.043 A 
ATOM      2  C   UNL     1     -47.285  29.898  22.683  1.00  0.00    -0.017 A 
ATOM      3  C   UNL     1     -47.999  29.994  23.879  1.00  0.00     0.045 A 
ATOM      4  C   UNL     1     -47.869  31.199  24.630  1.00  0.00     0.024 A 
ATOM      5  C   UNL     1     -48.601  31.487  25.808  1.00  0.00    -0.047 A 
ATOM      6  C   UNL     1     -48.368  32.652  26.538  1.00  0.00    -0.019 A 
ATOM      7  C   UNL     1     -47.410  33.564  26.116  1.00  0.00     0.122 A 
ATOM      8  C   UNL     1     -46.724  33.316  24.928  1.00  0.00     0.007 A 
ATOM      9  C   UNL     1     -46.937  32.163  24.182  1.00  0.00     0.076 A 
ATOM     10  N   UNL     1     -46.219  32.015  23.060  1.00  0.00    -0.253 NA
ATOM     11  H   UNL     1     -47.372  29.032  22.038  1.00  0.00     0.066 H 
ATOM     12  H   UNL     1     -49.363  30.806  26.174  1.00  0.00     0.063 H 
ATOM     13  H   UNL     1     -48.923  32.834  27.455  1.00  0.00     0.066 H 
ATOM     14  H   UNL     1     -45.965  33.997  24.557  1.00  0.00     0.069 H 
ENDROOT
BRANCH   1  15
ATOM     15  C   UNL     1     -45.570  30.775  21.070  1.00  0.00    -0.013 C 
ATOM     16  H   UNL     1     -45.662  29.755  20.680  1.00  0.00     0.033 H 
ATOM     17  H   UNL     1     -44.511  30.923  21.312  1.00  0.00     0.033 H 
BRANCH  15  18
ATOM     18  C   UNL     1     -46.006  31.766  20.000  1.00  0.00    -0.060 C 
ATOM     19  H   UNL     1     -46.367  32.689  20.464  1.00  0.00     0.023 H 
ATOM     20  H   UNL     1     -46.814  31.357  19.384  1.00  0.00     0.023 H 
ATOM     21  H   UNL     1     -45.174  32.022  19.335  1.00  0.00     0.023 H 
ENDBRANCH  15  18
ENDBRANCH   1  15
BRANCH   3  22
ATOM     22  N   UNL     1     -48.905  28.995  24.285  1.00  0.00    -0.382 N 
ATOM     23  H   UNL     1     -49.267  29.189  25.214  1.00  0.00     0.160 HD
BRANCH  22  24
ATOM     24  C   UNL     1     -48.602  27.563  24.128  1.00  0.00     0.038 C 
ATOM     25  H   UNL     1     -48.104  27.355  23.177  1.00  0.00     0.051 H 
ATOM     26  H   UNL     1     -49.571  27.051  24.087  1.00  0.00     0.051 H 
BRANCH  24  27
ATOM     27  C   UNL     1     -47.821  26.985  25.320  1.00  0.00     0.063 C 
ATOM     28  H   UNL     1     -47.737  27.755  26.095  1.00  0.00     0.059 H 
ATOM     29  H   UNL     1     -46.812  26.688  25.008  1.00  0.00     0.059 H 
BRANCH  27  30
ATOM     30  O   UNL     1     -48.507  25.863  25.883  1.00  0.00    -0.383 OA
BRANCH  30  31
ATOM     31  C   UNL     1     -47.601  24.920  26.439  1.00  0.00     0.036 C 
ATOM     32  H   UNL     1     -48.102  24.313  27.198  1.00  0.00     0.053 H 
ATOM     33  H   UNL     1     -47.253  24.262  25.639  1.00  0.00     0.053 H 
ATOM     34  H   UNL     1     -46.736  25.428  26.877  1.00  0.00     0.053 H 
ENDBRANCH  30  31
ENDBRANCH  27  30
ENDBRANCH  24  27
ENDBRANCH  22  24
ENDBRANCH   3  22
BRANCH   7  35
ATOM     35  O   UNL     1     -47.209  34.611  26.972  1.00  0.00    -0.489 OA
BRANCH  35  36
ATOM     36  C   UNL     1     -46.165  34.536  27.947  1.00  0.00     0.115 C 
ATOM     37  H   UNL     1     -46.305  33.704  28.644  1.00  0.00     0.076 H 
ATOM     38  H   UNL     1     -45.263  34.290  27.372  1.00  0.00     0.076 H 
BRANCH  36  39
ATOM     39  C   UNL     1     -45.899  35.826  28.685  1.00  0.00     0.008 A 
ATOM     40  C   UNL     1     -46.312  35.967  30.006  1.00  0.00     0.033 A 
ATOM     41  C   UNL     1     -45.317  36.951  28.088  1.00  0.00    -0.045 A 
ATOM     42  N   UNL     1     -46.180  37.099  30.734  1.00  0.00    -0.264 NA
ATOM     43  H   UNL     1     -46.784  35.144  30.539  1.00  0.00     0.084 H 
ATOM     44  C   UNL     1     -45.187  38.155  28.787  1.00  0.00     0.004 A 
ATOM     45  H   UNL     1     -44.968  36.903  27.060  1.00  0.00     0.063 H 
ATOM     46  C   UNL     1     -45.630  38.166  30.103  1.00  0.00     0.035 A 
ATOM     47  H   UNL     1     -45.578  39.063  30.713  1.00  0.00     0.085 H 
BRANCH  44  48
ATOM     48  C   UNL     1     -44.656  39.340  28.128  1.00  0.00     0.027 A 
ATOM     49  C   UNL     1     -45.114  39.829  26.916  1.00  0.00     0.011 A 
ATOM     50  C   UNL     1     -43.617  40.223  28.554  1.00  0.00     0.101 A 
ATOM     51  N   UNL     1     -44.394  40.958  26.610  1.00  0.00    -0.356 N 
ATOM     52  H   UNL     1     -45.899  39.488  26.253  1.00  0.00     0.082 H 
ATOM     53  C   UNL     1     -43.463  41.204  27.586  1.00  0.00     0.108 A 
ATOM     54  N   UNL     1     -42.858  40.189  29.671  1.00  0.00    -0.234 NA
ATOM     55  H   UNL     1     -44.538  41.542  25.796  1.00  0.00     0.166 HD
ATOM     56  C   UNL     1     -42.505  42.192  27.741  1.00  0.00     0.151 A 
ATOM     57  C   UNL     1     -41.968  41.185  29.748  1.00  0.00     0.118 A 
ATOM     58  N   UNL     1     -41.754  42.172  28.853  1.00  0.00    -0.218 NA
ATOM     59  H   UNL     1     -41.341  41.198  30.635  1.00  0.00     0.106 H 
BRANCH  56  60
ATOM     60  N   UNL     1     -42.264  43.187  26.805  1.00  0.00    -0.382 N 
ATOM     61  H   UNL     1     -41.572  43.863  27.093  1.00  0.00     0.158 HD
ATOM     62  H   UNL     1     -43.152  43.596  26.529  1.00  0.00     0.158 HD
ENDBRANCH  56  60
ENDBRANCH  44  48
ENDBRANCH  36  39
ENDBRANCH  35  36
ENDBRANCH   7  35
TORSDOF 12
ENDMDL
MODEL 2
REMARK VINA RESULT:      -9.0      2.962     11.555
REMARK SMILES CCc1cc(NCCOC)c2ccc(OCc3cncc(-c4c[nH]c5c(N)ncnc45)c3)cc2n1
REMARK SMILES IDX 3 1 4 2 5 3 11 4 12 5 13 6 14 7 33 8 34 9 35 10 2 15 1 18
REMARK SMILES IDX 6 22 7 24 8 27 9 30 10 31 15 35 16 36 17 39 18 40 32 41
REMARK SMILES IDX 19 42 21 44 20 46 22 48 23 49 31 50 24 51 25 53 30 54 26 56
REMARK SMILES IDX 29 57 28 58 27 60
REMARK H PARENT 4 11 12 12 13 13 33 14 2 16 2 17 1 19 1 20 1 21 6 23 7 25 7 26
REMARK H PARENT 8 28 8 29 10 32 10 33 10 34 16 37 16 38 18 43 32 45 20 47
REMARK H PARENT 23 52 24 55 29 59 27 61 27 62
REMARK Flexibility Score: inf
ROOT
ATOM      1  C   UNL     1     -43.089  41.218  28.074  1.00  0.00     0.043 A 
ATOM      2  C   UNL     1     -43.563  41.981  27.015  1.00  0.00    -0.017 A 
ATOM      3  C   UNL     1     -44.749  41.622  26.370  1.00  0.00     0.045 A 
ATOM      4  C   UNL     1     -45.488  40.529  26.908  1.00  0.00     0.024 A 
ATOM      5  C   UNL     1     -46.753  40.109  26.431  1.00  0.00    -0.047 A 
ATOM      6  C   UNL     1     -47.387  38.982  26.952  1.00  0.00    -0.019 A 
ATOM      7  C   UNL     1     -46.788  38.247  27.967  1.00  0.00     0.122 A 
ATOM      8  C   UNL     1     -45.569  38.685  28.483  1.00  0.00     0.007 A 
ATOM      9  C   UNL     1     -44.916  39.805  27.979  1.00  0.00     0.076 A 
ATOM     10  N   UNL     1     -43.744  40.136  28.538  1.00  0.00    -0.253 NA
ATOM     11  H   UNL     1     -42.974  42.829  26.689  1.00  0.00     0.066 H 
ATOM     12  H   UNL     1     -47.262  40.654  25.642  1.00  0.00     0.063 H 
ATOM     13  H   UNL     1     -48.344  38.664  26.545  1.00  0.00     0.066 H 
ATOM     14  H   UNL     1     -45.059  38.144  29.274  1.00  0.00     0.069 H 
ENDROOT
BRANCH   1  15
ATOM     15  C   UNL     1     -41.771  41.547  28.721  1.00  0.00    -0.013 C 
ATOM     16  H   UNL     1     -41.712  42.628  28.891  1.00  0.00     0.033 H 
ATOM     17  H   UNL     1     -40.947  41.292  28.044  1.00  0.00     0.033 H 
BRANCH  15  18
ATOM     18  C   UNL     1     -41.605  40.817  30.046  1.00  0.00    -0.060 C 
ATOM     19  H   UNL     1     -42.316  39.988  30.113  1.00  0.00     0.023 H 
ATOM     20  H   UNL     1     -41.783  41.486  30.895  1.00  0.00     0.023 H 
ATOM     21  H   UNL     1     -40.595  40.406  30.148  1.00  0.00     0.023 H 
ENDBRANCH  15  18
ENDBRANCH   1  15
BRANCH   3  22
ATOM     22  N   UNL     1     -45.266  42.373  25.296  1.00  0.00    -0.382 N 
ATOM     23  H   UNL     1     -44.527  42.642  24.653  1.00  0.00     0.160 HD
BRANCH  22  24
ATOM     24  C   UNL     1     -46.207  43.484  25.509  1.00  0.00     0.038 C 
ATOM     25  H   UNL     1     -46.482  43.587  26.563  1.00  0.00     0.051 H 
ATOM     26  H   UNL     1     -47.125  43.210  24.976  1.00  0.00     0.051 H 
BRANCH  24  27
ATOM     27  C   UNL     1     -45.705  44.813  24.918  1.00  0.00     0.063 C 
ATOM     28  H   UNL     1     -46.085  45.638  25.531  1.00  0.00     0.059 H 
ATOM     29  H   UNL     1     -46.072  44.937  23.892  1.00  0.00     0.059 H 
BRANCH  27  30
ATOM     30  O   UNL     1     -44.276  44.871  24.935  1.00  0.00    -0.383 OA
BRANCH  30  31
ATOM     31  C   UNL     1     -43.798  45.716  25.973  1.00  0.00     0.036 C 
ATOM     32  H   UNL     1     -42.725  45.891  25.856  1.00  0.00     0.053 H 
ATOM     33  H   UNL     1     -44.319  46.675  25.904  1.00  0.00     0.053 H 
ATOM     34  H   UNL     1     -44.001  45.275  26.953  1.00  0.00     0.053 H 
ENDBRANCH  30  31
ENDBRANCH  27  30
ENDBRANCH  24  27
ENDBRANCH  22  24
ENDBRANCH   3  22
BRANCH   7  35
ATOM     35  O   UNL     1     -47.462  37.111  28.318  1.00  0.00    -0.489 OA
BRANCH  35  36
ATOM     36  C   UNL     1     -48.171  36.371  27.319  1.00  0.00     0.115 C 
ATOM     37  H   UNL     1     -49.255  36.407  27.467  1.00  0.00     0.076 H 
ATOM     38  H   UNL     1     -47.983  36.914  26.384  1.00  0.00     0.076 H 
BRANCH  36  39
ATOM     39  C   UNL     1     -47.693  34.952  27.129  1.00  0.00     0.008 A 
ATOM     40  C   UNL     1     -46.642  34.466  27.900  1.00  0.00     0.033 A 
ATOM     41  C   UNL     1     -48.198  34.093  26.146  1.00  0.00    -0.045 A 
ATOM     42  N   UNL     1     -46.097  33.235  27.764  1.00  0.00    -0.264 NA
ATOM     43  H   UNL     1     -46.185  35.074  28.677  1.00  0.00     0.084 H 
ATOM     44  C   UNL     1     -47.649  32.823  25.943  1.00  0.00     0.004 A 
ATOM     45  H   UNL     1     -49.023  34.413  25.515  1.00  0.00     0.063 H 
ATOM     46  C   UNL     1     -46.608  32.450  26.784  1.00  0.00     0.035 A 
ATOM     47  H   UNL     1     -46.117  31.486  26.686  1.00  0.00     0.085 H 
BRANCH  44  48
ATOM     48  C   UNL     1     -48.130  31.973  24.863  1.00  0.00     0.027 A 
ATOM     49  C   UNL     1     -49.409  31.445  24.797  1.00  0.00     0.011 A 
ATOM     50  C   UNL     1     -47.446  31.525  23.692  1.00  0.00     0.101 A 
ATOM     51  N   UNL     1     -49.509  30.708  23.642  1.00  0.00    -0.356 N 
ATOM     52  H   UNL     1     -50.262  31.542  25.456  1.00  0.00     0.082 H 
ATOM     53  C   UNL     1     -48.317  30.728  22.965  1.00  0.00     0.108 A 
ATOM     54  N   UNL     1     -46.182  31.768  23.283  1.00  0.00    -0.234 NA
ATOM     55  H   UNL     1     -50.343  30.236  23.319  1.00  0.00     0.166 HD
ATOM     56  C   UNL     1     -47.903  30.147  21.778  1.00  0.00     0.151 A 
ATOM     57  C   UNL     1     -45.868  31.179  22.123  1.00  0.00     0.118 A 
ATOM     58  N   UNL     1     -46.652  30.391  21.359  1.00  0.00    -0.218 NA
ATOM     59  H   UNL     1     -44.861  31.355  21.756  1.00  0.00     0.106 H 
BRANCH  56  60
ATOM     60  N   UNL     1     -48.700  29.310  21.009  1.00  0.00    -0.382 N 
ATOM     61  H   UNL     1     -49.604  29.118  21.415  1.00  0.00     0.158 HD
ATOM     62  H   UNL     1     -48.167  28.477  20.776  1.00  0.00     0.158 HD
ENDBRANCH  56  60
ENDBRANCH  44  48
ENDBRANCH  36  39
ENDBRANCH  35  36
ENDBRANCH   7  35
TORSDOF 12
ENDMDL
MODEL 3
REMARK VINA RESULT:      -8.8      1.381      2.111
REMARK SMILES CCc1cc(NCCOC)c2ccc(OCc3cncc(-c4c[nH]c5c(N)ncnc45)c3)cc2n1
REMARK SMILES IDX 3 1 4 2 5 3 11 4 12 5 13 6 14 7 33 8 34 9 35 10 2 15 1 18
REMARK SMILES IDX 6 22 7 24 8 27 9 30 10 31 15 35 16 36 17 39 18 40 32 41
REMARK SMILES IDX 19 42 21 44 20 46 22 48 23 49 31 50 24 51 25 53 30 54 26 56
REMARK SMILES IDX 29 57 28 58 27 60
REMARK H PARENT 4 11 12 12 13 13 33 14 2 16 2 17 1 19 1 20 1 21 6 23 7 25 7 26
REMARK H PARENT 8 28 8 29 10 32 10 33 10 34 16 37 16 38 18 43 32 45 20 47
REMARK H PARENT 23 52 24 55 29 59 27 61 27 62
REMARK Flexibility Score: inf
ROOT
ATOM      1  C   UNL     1     -46.234  29.991  23.248  1.00  0.00     0.043 A 
ATOM      2  C   UNL     1     -47.382  29.380  23.738  1.00  0.00    -0.017 A 
ATOM      3  C   UNL     1     -48.201  30.056  24.645  1.00  0.00     0.045 A 
ATOM      4  C   UNL     1     -47.872  31.409  24.951  1.00  0.00     0.024 A 
ATOM      5  C   UNL     1     -48.657  32.255  25.771  1.00  0.00    -0.047 A 
ATOM      6  C   UNL     1     -48.236  33.545  26.094  1.00  0.00    -0.019 A 
ATOM      7  C   UNL     1     -47.031  34.032  25.605  1.00  0.00     0.122 A 
ATOM      8  C   UNL     1     -46.278  33.227  24.752  1.00  0.00     0.007 A 
ATOM      9  C   UNL     1     -46.675  31.938  24.415  1.00  0.00     0.076 A 
ATOM     10  N   UNL     1     -45.875  31.243  23.595  1.00  0.00    -0.253 NA
ATOM     11  H   UNL     1     -47.598  28.367  23.424  1.00  0.00     0.066 H 
ATOM     12  H   UNL     1     -49.608  31.920  26.172  1.00  0.00     0.063 H 
ATOM     13  H   UNL     1     -48.844  34.162  26.751  1.00  0.00     0.066 H 
ATOM     14  H   UNL     1     -45.329  33.561  24.346  1.00  0.00     0.069 H 
ENDROOT
BRANCH   1  15
ATOM     15  C   UNL     1     -45.301  29.241  22.336  1.00  0.00    -0.013 C 
ATOM     16  H   UNL     1     -44.372  29.812  22.223  1.00  0.00     0.033 H 
ATOM     17  H   UNL     1     -45.741  29.159  21.335  1.00  0.00     0.033 H 
BRANCH  15  18
ATOM     18  C   UNL     1     -44.981  27.858  22.884  1.00  0.00    -0.060 C 
ATOM     19  H   UNL     1     -45.839  27.462  23.435  1.00  0.00     0.023 H 
ATOM     20  H   UNL     1     -44.124  27.888  23.566  1.00  0.00     0.023 H 
ATOM     21  H   UNL     1     -44.743  27.158  22.076  1.00  0.00     0.023 H 
ENDBRANCH  15  18
ENDBRANCH   1  15
BRANCH   3  22
ATOM     22  N   UNL     1     -49.377  29.474  25.159  1.00  0.00    -0.382 N 
ATOM     23  H   UNL     1     -49.500  29.711  26.139  1.00  0.00     0.160 HD
BRANCH  22  24
ATOM     24  C   UNL     1     -49.714  28.063  24.915  1.00  0.00     0.038 C 
ATOM     25  H   UNL     1     -49.173  27.659  24.054  1.00  0.00     0.051 H 
ATOM     26  H   UNL     1     -50.777  28.049  24.646  1.00  0.00     0.051 H 
BRANCH  24  27
ATOM     27  C   UNL     1     -49.539  27.182  26.163  1.00  0.00     0.063 C 
ATOM     28  H   UNL     1     -49.244  27.818  27.006  1.00  0.00     0.059 H 
ATOM     29  H   UNL     1     -48.755  26.433  25.995  1.00  0.00     0.059 H 
BRANCH  27  30
ATOM     30  O   UNL     1     -50.766  26.534  26.506  1.00  0.00    -0.383 OA
BRANCH  30  31
ATOM     31  C   UNL     1     -51.726  26.643  25.462  1.00  0.00     0.036 C 
ATOM     32  H   UNL     1     -52.693  26.252  25.792  1.00  0.00     0.053 H 
ATOM     33  H   UNL     1     -51.843  27.700  25.210  1.00  0.00     0.053 H 
ATOM     34  H   UNL     1     -51.389  26.104  24.571  1.00  0.00     0.053 H 
ENDBRANCH  30  31
ENDBRANCH  27  30
ENDBRANCH  24  27
ENDBRANCH  22  24
ENDBRANCH   3  22
BRANCH   7  35
ATOM     35  O   UNL     1     -46.687  35.268  26.077  1.00  0.00    -0.489 OA
BRANCH  35  36
ATOM     36  C   UNL     1     -47.426  35.844  27.158  1.00  0.00     0.115 C 
ATOM     37  H   UNL     1     -48.229  36.502  26.808  1.00  0.00     0.076 H 
ATOM     38  H   UNL     1     -47.929  34.994  27.636  1.00  0.00     0.076 H 
BRANCH  36  39
ATOM     39  C   UNL     1     -46.581  36.525  28.207  1.00  0.00     0.008 A 
ATOM     40  C   UNL     1     -46.680  36.133  29.538  1.00  0.00     0.033 A 
ATOM     41  C   UNL     1     -45.736  37.607  27.935  1.00  0.00    -0.045 A 
ATOM     42  N   UNL     1     -46.018  36.719  30.562  1.00  0.00    -0.264 NA
ATOM     43  H   UNL     1     -47.324  35.308  29.836  1.00  0.00     0.084 H 
ATOM     44  C   UNL     1     -45.053  38.269  28.960  1.00  0.00     0.004 A 
ATOM     45  H   UNL     1     -45.612  37.957  26.913  1.00  0.00     0.063 H 
ATOM     46  C   UNL     1     -45.229  37.777  30.248  1.00  0.00     0.035 A 
ATOM     47  H   UNL     1     -44.746  38.240  31.103  1.00  0.00     0.085 H 
BRANCH  44  48
ATOM     48  C   UNL     1     -44.244  39.444  28.673  1.00  0.00     0.027 A 
ATOM     49  C   UNL     1     -43.224  39.906  29.487  1.00  0.00     0.011 A 
ATOM     50  C   UNL     1     -44.299  40.328  27.551  1.00  0.00     0.101 A 
ATOM     51  N   UNL     1     -42.677  41.021  28.898  1.00  0.00    -0.356 N 
ATOM     52  H   UNL     1     -42.825  39.535  30.422  1.00  0.00     0.082 H 
ATOM     53  C   UNL     1     -43.332  41.306  27.728  1.00  0.00     0.108 A 
ATOM     54  N   UNL     1     -45.113  40.307  26.474  1.00  0.00    -0.234 NA
ATOM     55  H   UNL     1     -41.891  41.547  29.257  1.00  0.00     0.166 HD
ATOM     56  C   UNL     1     -43.174  42.308  26.785  1.00  0.00     0.151 A 
ATOM     57  C   UNL     1     -44.887  41.302  25.609  1.00  0.00     0.118 A 
ATOM     58  N   UNL     1     -43.972  42.289  25.706  1.00  0.00    -0.218 NA
ATOM     59  H   UNL     1     -45.517  41.318  24.724  1.00  0.00     0.106 H 
BRANCH  56  60
ATOM     60  N   UNL     1     -42.255  43.341  26.903  1.00  0.00    -0.382 N 
ATOM     61  H   UNL     1     -42.148  43.689  27.845  1.00  0.00     0.158 HD
ATOM     62  H   UNL     1     -42.483  44.059  26.221  1.00  0.00     0.158 HD
ENDBRANCH  56  60
ENDBRANCH  44  48
ENDBRANCH  36  39
ENDBRANCH  35  36
ENDBRANCH   7  35
TORSDOF 12
ENDMDL
MODEL 4
REMARK VINA RESULT:      -8.6      2.618     11.903
REMARK SMILES CCc1cc(NCCOC)c2ccc(OCc3cncc(-c4c[nH]c5c(N)ncnc45)c3)cc2n1
REMARK SMILES IDX 3 1 4 2 5 3 11 4 12 5 13 6 14 7 33 8 34 9 35 10 2 15 1 18
REMARK SMILES IDX 6 22 7 24 8 27 9 30 10 31 15 35 16 36 17 39 18 40 32 41
REMARK SMILES IDX 19 42 21 44 20 46 22 48 23 49 31 50 24 51 25 53 30 54 26 56
REMARK SMILES IDX 29 57 28 58 27 60
REMARK H PARENT 4 11 12 12 13 13 33 14 2 16 2 17 1 19 1 20 1 21 6 23 7 25 7 26
REMARK H PARENT 8 28 8 29 10 32 10 33 10 34 16 37 16 38 18 43 32 45 20 47
REMARK H PARENT 23 52 24 55 29 59 27 61 27 62
REMARK Flexibility Score: inf
ROOT
ATOM      1  C   UNL     1     -43.677  39.668  29.060  1.00  0.00     0.043 A 
ATOM      2  C   UNL     1     -43.950  40.462  27.953  1.00  0.00    -0.017 A 
ATOM      3  C   UNL     1     -44.893  40.048  27.011  1.00  0.00     0.045 A 
ATOM      4  C   UNL     1     -45.625  38.857  27.288  1.00  0.00     0.024 A 
ATOM      5  C   UNL     1     -46.680  38.363  26.483  1.00  0.00    -0.047 A 
ATOM      6  C   UNL     1     -47.303  37.148  26.770  1.00  0.00    -0.019 A 
ATOM      7  C   UNL     1     -46.902  36.397  27.866  1.00  0.00     0.122 A 
ATOM      8  C   UNL     1     -45.902  36.902  28.697  1.00  0.00     0.007 A 
ATOM      9  C   UNL     1     -45.265  38.109  28.433  1.00  0.00     0.076 A 
ATOM     10  N   UNL     1     -44.311  38.500  29.288  1.00  0.00    -0.253 NA
ATOM     11  H   UNL     1     -43.390  41.381  27.830  1.00  0.00     0.066 H 
ATOM     12  H   UNL     1     -47.031  38.917  25.619  1.00  0.00     0.063 H 
ATOM     13  H   UNL     1     -48.090  36.779  26.117  1.00  0.00     0.066 H 
ATOM     14  H   UNL     1     -45.552  36.351  29.564  1.00  0.00     0.069 H 
ENDROOT
BRANCH   1  15
ATOM     15  C   UNL     1     -42.603  40.063  30.037  1.00  0.00    -0.013 C 
ATOM     16  H   UNL     1     -41.972  39.193  30.250  1.00  0.00     0.033 H 
ATOM     17  H   UNL     1     -43.055  40.362  30.990  1.00  0.00     0.033 H 
BRANCH  15  18
ATOM     18  C   UNL     1     -41.742  41.191  29.489  1.00  0.00    -0.060 C 
ATOM     19  H   UNL     1     -41.963  41.356  28.430  1.00  0.00     0.023 H 
ATOM     20  H   UNL     1     -40.675  40.959  29.581  1.00  0.00     0.023 H 
ATOM     21  H   UNL     1     -41.928  42.128  30.025  1.00  0.00     0.023 H 
ENDBRANCH  15  18
ENDBRANCH   1  15
BRANCH   3  22
ATOM     22  N   UNL     1     -45.202  40.828  25.878  1.00  0.00    -0.382 N 
ATOM     23  H   UNL     1     -44.433  40.824  25.215  1.00  0.00     0.160 HD
BRANCH  22  24
ATOM     24  C   UNL     1     -45.784  42.174  25.999  1.00  0.00     0.038 C 
ATOM     25  H   UNL     1     -45.819  42.509  27.040  1.00  0.00     0.051 H 
ATOM     26  H   UNL     1     -46.826  42.084  25.669  1.00  0.00     0.051 H 
BRANCH  24  27
ATOM     27  C   UNL     1     -45.096  43.206  25.090  1.00  0.00     0.063 C 
ATOM     28  H   UNL     1     -45.707  44.115  25.061  1.00  0.00     0.059 H 
ATOM     29  H   UNL     1     -44.999  42.813  24.071  1.00  0.00     0.059 H 
BRANCH  27  30
ATOM     30  O   UNL     1     -43.807  43.556  25.601  1.00  0.00    -0.383 OA
BRANCH  30  31
ATOM     31  C   UNL     1     -43.891  44.080  26.920  1.00  0.00     0.036 C 
ATOM     32  H   UNL     1     -43.335  43.446  27.617  1.00  0.00     0.053 H 
ATOM     33  H   UNL     1     -43.445  45.078  26.924  1.00  0.00     0.053 H 
ATOM     34  H   UNL     1     -44.935  44.160  27.238  1.00  0.00     0.053 H 
ENDBRANCH  30  31
ENDBRANCH  27  30
ENDBRANCH  24  27
ENDBRANCH  22  24
ENDBRANCH   3  22
BRANCH   7  35
ATOM     35  O   UNL     1     -47.520  35.183  27.977  1.00  0.00    -0.489 OA
BRANCH  35  36
ATOM     36  C   UNL     1     -48.344  34.708  26.909  1.00  0.00     0.115 C 
ATOM     37  H   UNL     1     -49.345  34.425  27.251  1.00  0.00     0.076 H 
ATOM     38  H   UNL     1     -48.490  35.581  26.260  1.00  0.00     0.076 H 
BRANCH  36  39
ATOM     39  C   UNL     1     -47.724  33.615  26.073  1.00  0.00     0.008 A 
ATOM     40  C   UNL     1     -46.458  33.795  25.525  1.00  0.00     0.033 A 
ATOM     41  C   UNL     1     -48.387  32.428  25.738  1.00  0.00    -0.045 A 
ATOM     42  N   UNL     1     -45.841  32.908  24.711  1.00  0.00    -0.264 NA
ATOM     43  H   UNL     1     -45.880  34.695  25.726  1.00  0.00     0.084 H 
ATOM     44  C   UNL     1     -47.807  31.493  24.875  1.00  0.00     0.004 A 
ATOM     45  H   UNL     1     -49.377  32.226  26.140  1.00  0.00     0.063 H 
ATOM     46  C   UNL     1     -46.535  31.785  24.400  1.00  0.00     0.035 A 
ATOM     47  H   UNL     1     -46.018  31.120  23.715  1.00  0.00     0.085 H 
BRANCH  44  48
ATOM     48  C   UNL     1     -48.543  30.304  24.470  1.00  0.00     0.027 A 
ATOM     49  C   UNL     1     -49.077  29.380  25.353  1.00  0.00     0.011 A 
ATOM     50  C   UNL     1     -48.875  29.849  23.157  1.00  0.00     0.101 A 
ATOM     51  N   UNL     1     -49.708  28.403  24.621  1.00  0.00    -0.356 N 
ATOM     52  H   UNL     1     -49.083  29.337  26.434  1.00  0.00     0.082 H 
ATOM     53  C   UNL     1     -49.578  28.660  23.280  1.00  0.00     0.108 A 
ATOM     54  N   UNL     1     -48.592  30.397  21.956  1.00  0.00    -0.234 NA
ATOM     55  H   UNL     1     -50.215  27.618  25.006  1.00  0.00     0.166 HD
ATOM     56  C   UNL     1     -50.016  27.990  22.150  1.00  0.00     0.151 A 
ATOM     57  C   UNL     1     -49.061  29.693  20.919  1.00  0.00     0.118 A 
ATOM     58  N   UNL     1     -49.749  28.533  20.953  1.00  0.00    -0.218 NA
ATOM     59  H   UNL     1     -48.860  30.103  19.934  1.00  0.00     0.106 H 
BRANCH  56  60
ATOM     60  N   UNL     1     -50.694  26.780  22.185  1.00  0.00    -0.382 N 
ATOM     61  H   UNL     1     -50.394  26.162  22.925  1.00  0.00     0.158 HD
ATOM     62  H   UNL     1     -50.661  26.362  21.259  1.00  0.00     0.158 HD
ENDBRANCH  56  60
ENDBRANCH  44  48
ENDBRANCH  36  39
ENDBRANCH  35  36
ENDBRANCH   7  35
TORSDOF 12
ENDMDL
MODEL 5
REMARK VINA RESULT:      -8.5      2.758     11.896
REMARK SMILES CCc1cc(NCCOC)c2ccc(OCc3cncc(-c4c[nH]c5c(N)ncnc45)c3)cc2n1
REMARK SMILES IDX 3 1 4 2 5 3 11 4 12 5 13 6 14 7 33 8 34 9 35 10 2 15 1 18
REMARK SMILES IDX 6 22 7 24 8 27 9 30 10 31 15 35 16 36 17 39 18 40 32 41
REMARK SMILES IDX 19 42 21 44 20 46 22 48 23 49 31 50 24 51 25 53 30 54 26 56
REMARK SMILES IDX 29 57 28 58 27 60
REMARK H PARENT 4 11 12 12 13 13 33 14 2 16 2 17 1 19 1 20 1 21 6 23 7 25 7 26
REMARK H PARENT 8 28 8 29 10 32 10 33 10 34 16 37 16 38 18 43 32 45 20 47
REMARK H PARENT 23 52 24 55 29 59 27 61 27 62
REMARK Flexibility Score: inf
ROOT
ATOM      1  C   UNL     1     -42.981  41.576  28.283  1.00  0.00     0.043 A 
ATOM      2  C   UNL     1     -43.419  42.355  27.219  1.00  0.00    -0.017 A 
ATOM      3  C   UNL     1     -44.466  41.908  26.410  1.00  0.00     0.045 A 
ATOM      4  C   UNL     1     -45.120  40.698  26.786  1.00  0.00     0.024 A 
ATOM      5  C   UNL     1     -46.257  40.168  26.128  1.00  0.00    -0.047 A 
ATOM      6  C   UNL     1     -46.801  38.939  26.498  1.00  0.00    -0.019 A 
ATOM      7  C   UNL     1     -46.237  38.207  27.534  1.00  0.00     0.122 A 
ATOM      8  C   UNL     1     -45.152  38.746  28.225  1.00  0.00     0.007 A 
ATOM      9  C   UNL     1     -44.591  39.969  27.875  1.00  0.00     0.076 A 
ATOM     10  N   UNL     1     -43.545  40.393  28.596  1.00  0.00    -0.253 NA
ATOM     11  H   UNL     1     -42.907  43.288  27.021  1.00  0.00     0.066 H 
ATOM     12  H   UNL     1     -46.734  40.707  25.315  1.00  0.00     0.063 H 
ATOM     13  H   UNL     1     -47.655  38.542  25.955  1.00  0.00     0.066 H 
ATOM     14  H   UNL     1     -44.676  38.212  29.040  1.00  0.00     0.069 H 
ENDROOT
BRANCH   1  15
ATOM     15  C   UNL     1     -41.800  42.009  29.109  1.00  0.00    -0.013 C 
ATOM     16  H   UNL     1     -42.059  42.921  29.660  1.00  0.00     0.033 H 
ATOM     17  H   UNL     1     -40.959  42.268  28.455  1.00  0.00     0.033 H 
BRANCH  15  18
ATOM     18  C   UNL     1     -41.383  40.925  30.093  1.00  0.00    -0.060 C 
ATOM     19  H   UNL     1     -42.203  40.215  30.243  1.00  0.00     0.023 H 
ATOM     20  H   UNL     1     -41.122  41.352  31.068  1.00  0.00     0.023 H 
ATOM     21  H   UNL     1     -40.515  40.370  29.725  1.00  0.00     0.023 H 
ENDBRANCH  15  18
ENDBRANCH   1  15
BRANCH   3  22
ATOM     22  N   UNL     1     -44.944  42.670  25.326  1.00  0.00    -0.382 N 
ATOM     23  H   UNL     1     -44.282  42.659  24.555  1.00  0.00     0.160 HD
BRANCH  22  24
ATOM     24  C   UNL     1     -45.507  44.016  25.514  1.00  0.00     0.038 C 
ATOM     25  H   UNL     1     -45.606  44.551  24.565  1.00  0.00     0.051 H 
ATOM     26  H   UNL     1     -44.771  44.573  26.106  1.00  0.00     0.051 H 
BRANCH  24  27
ATOM     27  C   UNL     1     -46.827  44.006  26.303  1.00  0.00     0.063 C 
ATOM     28  H   UNL     1     -47.043  42.979  26.619  1.00  0.00     0.059 H 
ATOM     29  H   UNL     1     -47.652  44.362  25.674  1.00  0.00     0.059 H 
BRANCH  27  30
ATOM     30  O   UNL     1     -46.725  44.817  27.477  1.00  0.00    -0.383 OA
BRANCH  30  31
ATOM     31  C   UNL     1     -45.497  45.533  27.515  1.00  0.00     0.036 C 
ATOM     32  H   UNL     1     -45.385  46.046  28.474  1.00  0.00     0.053 H 
ATOM     33  H   UNL     1     -44.678  44.818  27.402  1.00  0.00     0.053 H 
ATOM     34  H   UNL     1     -45.447  46.256  26.695  1.00  0.00     0.053 H 
ENDBRANCH  30  31
ENDBRANCH  27  30
ENDBRANCH  24  27
ENDBRANCH  22  24
ENDBRANCH   3  22
BRANCH   7  35
ATOM     35  O   UNL     1     -46.800  36.976  27.730  1.00  0.00    -0.489 OA
BRANCH  35  36
ATOM     36  C   UNL     1     -46.212  35.824  27.120  1.00  0.00     0.115 C 
ATOM     37  H   UNL     1     -45.472  36.089  26.357  1.00  0.00     0.076 H 
ATOM     38  H   UNL     1     -45.644  35.342  27.926  1.00  0.00     0.076 H 
BRANCH  36  39
ATOM     39  C   UNL     1     -47.203  34.816  26.591  1.00  0.00     0.008 A 
ATOM     40  C   UNL     1     -48.550  34.930  26.920  1.00  0.00     0.033 A 
ATOM     41  C   UNL     1     -46.836  33.696  25.835  1.00  0.00    -0.045 A 
ATOM     42  N   UNL     1     -49.507  34.047  26.553  1.00  0.00    -0.264 NA
ATOM     43  H   UNL     1     -48.916  35.764  27.515  1.00  0.00     0.084 H 
ATOM     44  C   UNL     1     -47.781  32.737  25.458  1.00  0.00     0.004 A 
ATOM     45  H   UNL     1     -45.800  33.553  25.542  1.00  0.00     0.063 H 
ATOM     46  C   UNL     1     -49.096  32.969  25.840  1.00  0.00     0.035 A 
ATOM     47  H   UNL     1     -49.889  32.268  25.599  1.00  0.00     0.085 H 
BRANCH  44  48
ATOM     48  C   UNL     1     -47.371  31.536  24.742  1.00  0.00     0.027 A 
ATOM     49  C   UNL     1     -46.413  31.513  23.743  1.00  0.00     0.011 A 
ATOM     50  C   UNL     1     -47.822  30.190  24.903  1.00  0.00     0.101 A 
ATOM     51  N   UNL     1     -46.279  30.217  23.308  1.00  0.00    -0.356 N 
ATOM     52  H   UNL     1     -45.801  32.296  23.314  1.00  0.00     0.082 H 
ATOM     53  C   UNL     1     -47.144  29.399  23.988  1.00  0.00     0.108 A 
ATOM     54  N   UNL     1     -48.742  29.682  25.751  1.00  0.00    -0.234 NA
ATOM     55  H   UNL     1     -45.625  29.900  22.605  1.00  0.00     0.166 HD
ATOM     56  C   UNL     1     -47.399  28.039  23.919  1.00  0.00     0.151 A 
ATOM     57  C   UNL     1     -48.919  28.362  25.626  1.00  0.00     0.118 A 
ATOM     58  N   UNL     1     -48.304  27.524  24.765  1.00  0.00    -0.218 NA
ATOM     59  H   UNL     1     -49.646  27.912  26.296  1.00  0.00     0.106 H 
BRANCH  56  60
ATOM     60  N   UNL     1     -46.790  27.185  23.011  1.00  0.00    -0.382 N 
ATOM     61  H   UNL     1     -46.599  27.608  22.114  1.00  0.00     0.158 HD
ATOM     62  H   UNL     1     -47.333  26.328  22.956  1.00  0.00     0.158 HD
ENDBRANCH  56  60
ENDBRANCH  44  48
ENDBRANCH  36  39
ENDBRANCH  35  36
ENDBRANCH   7  35
TORSDOF 12
ENDMDL
MODEL 6
REMARK VINA RESULT:      -8.5      1.610      2.391
REMARK SMILES CCc1cc(NCCOC)c2ccc(OCc3cncc(-c4c[nH]c5c(N)ncnc45)c3)cc2n1
REMARK SMILES IDX 3 1 4 2 5 3 11 4 12 5 13 6 14 7 33 8 34 9 35 10 2 15 1 18
REMARK SMILES IDX 6 22 7 24 8 27 9 30 10 31 15 35 16 36 17 39 18 40 32 41
REMARK SMILES IDX 19 42 21 44 20 46 22 48 23 49 31 50 24 51 25 53 30 54 26 56
REMARK SMILES IDX 29 57 28 58 27 60
REMARK H PARENT 4 11 12 12 13 13 33 14 2 16 2 17 1 19 1 20 1 21 6 23 7 25 7 26
REMARK H PARENT 8 28 8 29 10 32 10 33 10 34 16 37 16 38 18 43 32 45 20 47
REMARK H PARENT 23 52 24 55 29 59 27 61 27 62
REMARK Flexibility Score: inf
ROOT
ATOM      1  C   UNL     1     -50.189  31.051  23.542  1.00  0.00     0.043 A 
ATOM      2  C   UNL     1     -49.067  30.592  22.864  1.00  0.00    -0.017 A 
ATOM      3  C   UNL     1     -47.795  31.027  23.242  1.00  0.00     0.045 A 
ATOM      4  C   UNL     1     -47.697  31.857  24.397  1.00  0.00     0.024 A 
ATOM      5  C   UNL     1     -46.475  32.296  24.963  1.00  0.00    -0.047 A 
ATOM      6  C   UNL     1     -46.452  33.171  26.048  1.00  0.00    -0.019 A 
ATOM      7  C   UNL     1     -47.640  33.626  26.606  1.00  0.00     0.122 A 
ATOM      8  C   UNL     1     -48.847  33.155  26.093  1.00  0.00     0.007 A 
ATOM      9  C   UNL     1     -48.897  32.284  25.011  1.00  0.00     0.076 A 
ATOM     10  N   UNL     1     -50.108  31.899  24.587  1.00  0.00    -0.253 NA
ATOM     11  H   UNL     1     -49.212  29.923  22.026  1.00  0.00     0.066 H 
ATOM     12  H   UNL     1     -45.522  31.964  24.563  1.00  0.00     0.063 H 
ATOM     13  H   UNL     1     -45.500  33.516  26.443  1.00  0.00     0.066 H 
ATOM     14  H   UNL     1     -49.802  33.483  26.492  1.00  0.00     0.069 H 
ENDROOT
BRANCH   1  15
ATOM     15  C   UNL     1     -51.568  30.654  23.090  1.00  0.00    -0.013 C 
ATOM     16  H   UNL     1     -52.309  31.072  23.783  1.00  0.00     0.033 H 
ATOM     17  H   UNL     1     -51.679  29.564  23.135  1.00  0.00     0.033 H 
BRANCH  15  18
ATOM     18  C   UNL     1     -51.856  31.153  21.682  1.00  0.00    -0.060 C 
ATOM     19  H   UNL     1     -51.194  30.661  20.963  1.00  0.00     0.023 H 
ATOM     20  H   UNL     1     -51.700  32.234  21.603  1.00  0.00     0.023 H 
ATOM     21  H   UNL     1     -52.891  30.941  21.391  1.00  0.00     0.023 H 
ENDBRANCH  15  18
ENDBRANCH   1  15
BRANCH   3  22
ATOM     22  N   UNL     1     -46.632  30.580  22.585  1.00  0.00    -0.382 N 
ATOM     23  H   UNL     1     -46.473  31.106  21.730  1.00  0.00     0.160 HD
BRANCH  22  24
ATOM     24  C   UNL     1     -46.360  29.149  22.377  1.00  0.00     0.038 C 
ATOM     25  H   UNL     1     -45.411  28.986  21.858  1.00  0.00     0.051 H 
ATOM     26  H   UNL     1     -47.146  28.786  21.704  1.00  0.00     0.051 H 
BRANCH  24  27
ATOM     27  C   UNL     1     -46.447  28.330  23.676  1.00  0.00     0.063 C 
ATOM     28  H   UNL     1     -46.438  29.018  24.529  1.00  0.00     0.059 H 
ATOM     29  H   UNL     1     -45.589  27.653  23.759  1.00  0.00     0.059 H 
BRANCH  27  30
ATOM     30  O   UNL     1     -47.665  27.581  23.725  1.00  0.00    -0.383 OA
BRANCH  30  31
ATOM     31  C   UNL     1     -48.247  27.611  25.022  1.00  0.00     0.036 C 
ATOM     32  H   UNL     1     -49.296  27.913  24.961  1.00  0.00     0.053 H 
ATOM     33  H   UNL     1     -48.196  26.605  25.447  1.00  0.00     0.053 H 
ATOM     34  H   UNL     1     -47.698  28.297  25.675  1.00  0.00     0.053 H 
ENDBRANCH  30  31
ENDBRANCH  27  30
ENDBRANCH  24  27
ENDBRANCH  22  24
ENDBRANCH   3  22
BRANCH   7  35
ATOM     35  O   UNL     1     -47.480  34.556  27.596  1.00  0.00    -0.489 OA
BRANCH  35  36
ATOM     36  C   UNL     1     -46.228  34.653  28.281  1.00  0.00     0.115 C 
ATOM     37  H   UNL     1     -46.130  33.906  29.075  1.00  0.00     0.076 H 
ATOM     38  H   UNL     1     -45.477  34.383  27.528  1.00  0.00     0.076 H 
BRANCH  36  39
ATOM     39  C   UNL     1     -45.893  36.035  28.787  1.00  0.00     0.008 A 
ATOM     40  C   UNL     1     -46.036  36.331  30.139  1.00  0.00     0.033 A 
ATOM     41  C   UNL     1     -45.510  37.091  27.952  1.00  0.00    -0.045 A 
ATOM     42  N   UNL     1     -45.825  37.552  30.683  1.00  0.00    -0.264 NA
ATOM     43  H   UNL     1     -46.341  35.570  30.853  1.00  0.00     0.084 H 
ATOM     44  C   UNL     1     -45.310  38.379  28.459  1.00  0.00     0.004 A 
ATOM     45  H   UNL     1     -45.376  36.922  26.887  1.00  0.00     0.063 H 
ATOM     46  C   UNL     1     -45.477  38.545  29.828  1.00  0.00     0.035 A 
ATOM     47  H   UNL     1     -45.354  39.515  30.301  1.00  0.00     0.085 H 
BRANCH  44  48
ATOM     48  C   UNL     1     -44.993  39.485  27.566  1.00  0.00     0.027 A 
ATOM     49  C   UNL     1     -45.661  39.746  26.382  1.00  0.00     0.011 A 
ATOM     50  C   UNL     1     -43.996  40.499  27.702  1.00  0.00     0.101 A 
ATOM     51  N   UNL     1     -45.103  40.866  25.813  1.00  0.00    -0.356 N 
ATOM     52  H   UNL     1     -46.493  39.250  25.900  1.00  0.00     0.082 H 
ATOM     53  C   UNL     1     -44.074  41.328  26.593  1.00  0.00     0.108 A 
ATOM     54  N   UNL     1     -43.090  40.695  28.684  1.00  0.00    -0.234 NA
ATOM     55  H   UNL     1     -45.415  41.305  24.957  1.00  0.00     0.166 HD
ATOM     56  C   UNL     1     -43.204  42.397  26.460  1.00  0.00     0.151 A 
ATOM     57  C   UNL     1     -42.299  41.755  28.483  1.00  0.00     0.118 A 
ATOM     58  N   UNL     1     -42.308  42.606  27.436  1.00  0.00    -0.218 NA
ATOM     59  H   UNL     1     -41.559  41.951  29.254  1.00  0.00     0.106 H 
BRANCH  56  60
ATOM     60  N   UNL     1     -43.194  43.252  25.367  1.00  0.00    -0.382 N 
ATOM     61  H   UNL     1     -43.776  42.946  24.601  1.00  0.00     0.158 HD
ATOM     62  H   UNL     1     -42.229  43.434  25.106  1.00  0.00     0.158 HD
ENDBRANCH  56  60
ENDBRANCH  44  48
ENDBRANCH  36  39
ENDBRANCH  35  36
ENDBRANCH   7  35
TORSDOF 12
ENDMDL
MODEL 7
REMARK VINA RESULT:      -8.1      1.893      2.718
REMARK SMILES CCc1cc(NCCOC)c2ccc(OCc3cncc(-c4c[nH]c5c(N)ncnc45)c3)cc2n1
REMARK SMILES IDX 3 1 4 2 5 3 11 4 12 5 13 6 14 7 33 8 34 9 35 10 2 15 1 18
REMARK SMILES IDX 6 22 7 24 8 27 9 30 10 31 15 35 16 36 17 39 18 40 32 41
REMARK SMILES IDX 19 42 21 44 20 46 22 48 23 49 31 50 24 51 25 53 30 54 26 56
REMARK SMILES IDX 29 57 28 58 27 60
REMARK H PARENT 4 11 12 12 13 13 33 14 2 16 2 17 1 19 1 20 1 21 6 23 7 25 7 26
REMARK H PARENT 8 28 8 29 10 32 10 33 10 34 16 37 16 38 18 43 32 45 20 47
REMARK H PARENT 23 52 24 55 29 59 27 61 27 62
REMARK Flexibility Score: inf
ROOT
ATOM      1  C   UNL     1     -46.501  30.582  22.691  1.00  0.00     0.043 A 
ATOM      2  C   UNL     1     -47.812  30.182  22.464  1.00  0.00    -0.017 A 
ATOM      3  C   UNL     1     -48.838  30.643  23.291  1.00  0.00     0.045 A 
ATOM      4  C   UNL     1     -48.501  31.607  24.286  1.00  0.00     0.024 A 
ATOM      5  C   UNL     1     -49.441  32.243  25.132  1.00  0.00    -0.047 A 
ATOM      6  C   UNL     1     -49.035  33.119  26.138  1.00  0.00    -0.019 A 
ATOM      7  C   UNL     1     -47.687  33.395  26.325  1.00  0.00     0.122 A 
ATOM      8  C   UNL     1     -46.758  32.819  25.460  1.00  0.00     0.007 A 
ATOM      9  C   UNL     1     -47.137  31.941  24.451  1.00  0.00     0.076 A 
ATOM     10  N   UNL     1     -46.165  31.434  23.681  1.00  0.00    -0.253 NA
ATOM     11  H   UNL     1     -48.003  29.484  21.658  1.00  0.00     0.066 H 
ATOM     12  H   UNL     1     -50.506  32.061  25.022  1.00  0.00     0.063 H 
ATOM     13  H   UNL     1     -49.777  33.569  26.793  1.00  0.00     0.066 H 
ATOM     14  H   UNL     1     -45.693  33.001  25.566  1.00  0.00     0.069 H 
ENDROOT
BRANCH   1  15
ATOM     15  C   UNL     1     -45.378  30.026  21.859  1.00  0.00    -0.013 C 
ATOM     16  H   UNL     1     -44.595  30.786  21.756  1.00  0.00     0.033 H 
ATOM     17  H   UNL     1     -45.735  29.806  20.846  1.00  0.00     0.033 H 
BRANCH  15  18
ATOM     18  C   UNL     1     -44.787  28.773  22.489  1.00  0.00    -0.060 C 
ATOM     19  H   UNL     1     -45.425  28.424  23.307  1.00  0.00     0.023 H 
ATOM     20  H   UNL     1     -43.788  28.965  22.897  1.00  0.00     0.023 H 
ATOM     21  H   UNL     1     -44.701  27.964  21.756  1.00  0.00     0.023 H 
ENDBRANCH  15  18
ENDBRANCH   1  15
BRANCH   3  22
ATOM     22  N   UNL     1     -50.180  30.265  23.090  1.00  0.00    -0.382 N 
ATOM     23  H   UNL     1     -50.605  29.960  23.960  1.00  0.00     0.160 HD
BRANCH  22  24
ATOM     24  C   UNL     1     -50.581  29.392  21.976  1.00  0.00     0.038 C 
ATOM     25  H   UNL     1     -49.884  29.461  21.135  1.00  0.00     0.051 H 
ATOM     26  H   UNL     1     -51.539  29.784  21.614  1.00  0.00     0.051 H 
BRANCH  24  27
ATOM     27  C   UNL     1     -50.808  27.935  22.411  1.00  0.00     0.063 C 
ATOM     28  H   UNL     1     -49.959  27.329  22.075  1.00  0.00     0.059 H 
ATOM     29  H   UNL     1     -51.726  27.539  21.958  1.00  0.00     0.059 H 
BRANCH  27  30
ATOM     30  O   UNL     1     -50.886  27.835  23.836  1.00  0.00    -0.383 OA
BRANCH  30  31
ATOM     31  C   UNL     1     -50.003  26.842  24.341  1.00  0.00     0.036 C 
ATOM     32  H   UNL     1     -50.012  25.960  23.694  1.00  0.00     0.053 H 
ATOM     33  H   UNL     1     -48.991  27.255  24.354  1.00  0.00     0.053 H 
ATOM     34  H   UNL     1     -50.282  26.561  25.361  1.00  0.00     0.053 H 
ENDBRANCH  30  31
ENDBRANCH  27  30
ENDBRANCH  24  27
ENDBRANCH  22  24
ENDBRANCH   3  22
BRANCH   7  35
ATOM     35  O   UNL     1     -47.416  34.188  27.405  1.00  0.00    -0.489 OA
BRANCH  35  36
ATOM     36  C   UNL     1     -46.061  34.529  27.710  1.00  0.00     0.115 C 
ATOM     37  H   UNL     1     -45.554  33.747  28.285  1.00  0.00     0.076 H 
ATOM     38  H   UNL     1     -45.554  34.554  26.737  1.00  0.00     0.076 H 
BRANCH  36  39
ATOM     39  C   UNL     1     -45.882  35.883  28.354  1.00  0.00     0.008 A 
ATOM     40  C   UNL     1     -46.060  36.025  29.727  1.00  0.00     0.033 A 
ATOM     41  C   UNL     1     -45.617  37.052  27.633  1.00  0.00    -0.045 A 
ATOM     42  N   UNL     1     -45.987  37.202  30.391  1.00  0.00    -0.264 NA
ATOM     43  H   UNL     1     -46.281  35.168  30.358  1.00  0.00     0.084 H 
ATOM     44  C   UNL     1     -45.563  38.297  28.267  1.00  0.00     0.004 A 
ATOM     45  H   UNL     1     -45.462  37.006  26.558  1.00  0.00     0.063 H 
ATOM     46  C   UNL     1     -45.750  38.308  29.643  1.00  0.00     0.035 A 
ATOM     47  H   UNL     1     -45.737  39.233  30.211  1.00  0.00     0.085 H 
BRANCH  44  48
ATOM     48  C   UNL     1     -45.369  39.515  27.492  1.00  0.00     0.027 A 
ATOM     49  C   UNL     1     -44.157  39.909  26.951  1.00  0.00     0.011 A 
ATOM     50  C   UNL     1     -46.322  40.513  27.122  1.00  0.00     0.101 A 
ATOM     51  N   UNL     1     -44.352  41.093  26.280  1.00  0.00    -0.356 N 
ATOM     52  H   UNL     1     -43.177  39.448  26.966  1.00  0.00     0.082 H 
ATOM     53  C   UNL     1     -45.660  41.487  26.390  1.00  0.00     0.108 A 
ATOM     54  N   UNL     1     -47.642  40.590  27.394  1.00  0.00    -0.234 NA
ATOM     55  H   UNL     1     -43.644  41.595  25.760  1.00  0.00     0.166 HD
ATOM     56  C   UNL     1     -46.351  42.588  25.912  1.00  0.00     0.151 A 
ATOM     57  C   UNL     1     -48.234  41.677  26.887  1.00  0.00     0.118 A 
ATOM     58  N   UNL     1     -47.665  42.668  26.169  1.00  0.00    -0.218 NA
ATOM     59  H   UNL     1     -49.299  41.774  27.078  1.00  0.00     0.106 H 
BRANCH  56  60
ATOM     60  N   UNL     1     -45.758  43.623  25.203  1.00  0.00    -0.382 N 
ATOM     61  H   UNL     1     -45.532  44.430  25.765  1.00  0.00     0.158 HD
ATOM     62  H   UNL     1     -46.332  43.832  24.391  1.00  0.00     0.158 HD
ENDBRANCH  56  60
ENDBRANCH  44  48
ENDBRANCH  36  39
ENDBRANCH  35  36
ENDBRANCH   7  35
TORSDOF 12
ENDMDL
