MODEL 1
REMARK VINA RESULT:      -7.7      0.000      0.000
REMARK SMILES CNc1cc(N2CC3(CN(c4ccc(CN5CCC(C)(C)CC5)cc4)CC(=O)N3)C2)ncn1
REMARK SMILES IDX 6 1 7 2 8 3 9 4 10 5 26 6 27 7 28 8 29 9 30 10 5 20 3 21
REMARK SMILES IDX 4 22 33 23 32 25 31 26 2 28 1 30 11 34 12 35 25 36 13 37
REMARK SMILES IDX 24 39 14 41 15 44 16 47 17 48 23 49 18 50 22 53 19 56 20 61
REMARK SMILES IDX 21 65
REMARK H PARENT 7 11 7 12 9 13 9 14 26 15 26 16 29 17 30 18 30 19 4 24 32 27
REMARK H PARENT 2 29 1 31 1 32 1 33 12 38 25 40 13 42 24 43 15 45 15 46 17 51
REMARK H PARENT 17 52 23 54 23 55 18 57 18 58 22 59 22 60 20 62 20 63 20 64
REMARK H PARENT 21 66 21 67 21 68
REMARK Flexibility Score: inf
ROOT
ATOM      1  N   UNL     1     -43.894  45.690  28.237  1.00  0.00    -0.351 N 
ATOM      2  C   UNL     1     -44.335  46.164  26.956  1.00  0.00     0.046 C 
ATOM      3  C   UNL     1     -44.100  44.726  26.430  1.00  0.00     0.092 C 
ATOM      4  C   UNL     1     -45.186  44.207  25.485  1.00  0.00     0.045 C 
ATOM      5  N   UNL     1     -44.847  42.864  24.965  1.00  0.00    -0.360 N 
ATOM      6  C   UNL     1     -43.582  42.874  24.191  1.00  0.00     0.097 C 
ATOM      7  C   UNL     1     -42.418  43.567  24.916  1.00  0.00     0.240 C 
ATOM      8  O   UNL     1     -41.241  43.349  24.630  1.00  0.00    -0.273 OA
ATOM      9  N   UNL     1     -42.727  44.511  25.866  1.00  0.00    -0.344 N 
ATOM     10  C   UNL     1     -44.223  44.323  27.922  1.00  0.00     0.046 C 
ATOM     11  H   UNL     1     -43.692  46.943  26.540  1.00  0.00     0.052 H 
ATOM     12  H   UNL     1     -45.378  46.500  26.966  1.00  0.00     0.052 H 
ATOM     13  H   UNL     1     -46.174  44.234  25.961  1.00  0.00     0.052 H 
ATOM     14  H   UNL     1     -45.267  44.885  24.624  1.00  0.00     0.052 H 
ATOM     15  H   UNL     1     -43.285  41.861  23.897  1.00  0.00     0.060 H 
ATOM     16  H   UNL     1     -43.753  43.434  23.263  1.00  0.00     0.060 H 
ATOM     17  H   UNL     1     -41.920  44.883  26.357  1.00  0.00     0.164 HD
ATOM     18  H   UNL     1     -43.485  43.610  28.299  1.00  0.00     0.052 H 
ATOM     19  H   UNL     1     -45.228  44.043  28.258  1.00  0.00     0.052 H 
ENDROOT
BRANCH   1  20
ATOM     20  C   UNL     1     -44.132  46.293  29.487  1.00  0.00     0.134 A 
ATOM     21  C   UNL     1     -45.610  47.070  31.171  1.00  0.00     0.131 A 
ATOM     22  C   UNL     1     -45.428  46.466  29.940  1.00  0.00     0.023 A 
ATOM     23  N   UNL     1     -44.571  47.500  31.898  1.00  0.00    -0.219 NA
ATOM     24  H   UNL     1     -46.276  46.162  29.343  1.00  0.00     0.070 H 
ATOM     25  C   UNL     1     -43.355  47.301  31.375  1.00  0.00     0.120 A 
ATOM     26  N   UNL     1     -43.079  46.712  30.207  1.00  0.00    -0.219 NA
ATOM     27  H   UNL     1     -42.509  47.650  31.958  1.00  0.00     0.106 H 
BRANCH  21  28
ATOM     28  N   UNL     1     -46.930  47.270  31.620  1.00  0.00    -0.373 N 
ATOM     29  H   UNL     1     -47.515  47.540  30.835  1.00  0.00     0.161 HD
BRANCH  28  30
ATOM     30  C   UNL     1     -47.494  46.148  32.353  1.00  0.00     0.005 C 
ATOM     31  H   UNL     1     -46.711  45.540  32.822  1.00  0.00     0.045 H 
ATOM     32  H   UNL     1     -48.131  46.532  33.155  1.00  0.00     0.045 H 
ATOM     33  H   UNL     1     -48.116  45.517  31.709  1.00  0.00     0.045 H 
ENDBRANCH  28  30
ENDBRANCH  21  28
ENDBRANCH   1  20
BRANCH   5  34
ATOM     34  C   UNL     1     -45.071  41.826  25.885  1.00  0.00     0.037 A 
ATOM     35  C   UNL     1     -43.981  41.066  26.342  1.00  0.00    -0.038 A 
ATOM     36  C   UNL     1     -46.336  41.485  26.384  1.00  0.00    -0.038 A 
ATOM     37  C   UNL     1     -44.150  39.984  27.213  1.00  0.00    -0.056 A 
ATOM     38  H   UNL     1     -42.973  41.318  26.026  1.00  0.00     0.064 H 
ATOM     39  C   UNL     1     -46.514  40.403  27.257  1.00  0.00    -0.056 A 
ATOM     40  H   UNL     1     -47.229  42.027  26.086  1.00  0.00     0.064 H 
ATOM     41  C   UNL     1     -45.423  39.631  27.667  1.00  0.00    -0.034 A 
ATOM     42  H   UNL     1     -43.282  39.410  27.528  1.00  0.00     0.063 H 
ATOM     43  H   UNL     1     -47.518  40.162  27.598  1.00  0.00     0.063 H 
BRANCH  41  44
ATOM     44  C   UNL     1     -45.613  38.446  28.589  1.00  0.00     0.023 C 
ATOM     45  H   UNL     1     -46.462  38.616  29.264  1.00  0.00     0.048 H 
ATOM     46  H   UNL     1     -44.718  38.404  29.224  1.00  0.00     0.048 H 
BRANCH  44  47
ATOM     47  N   UNL     1     -45.775  37.168  27.869  1.00  0.00    -0.299 NA
ATOM     48  C   UNL     1     -46.284  36.138  28.784  1.00  0.00    -0.001 C 
ATOM     49  C   UNL     1     -46.658  37.317  26.701  1.00  0.00    -0.001 C 
ATOM     50  C   UNL     1     -46.399  34.779  28.086  1.00  0.00    -0.035 C 
ATOM     51  H   UNL     1     -45.591  36.020  29.627  1.00  0.00     0.043 H 
ATOM     52  H   UNL     1     -47.252  36.430  29.209  1.00  0.00     0.043 H 
ATOM     53  C   UNL     1     -46.788  35.998  25.931  1.00  0.00    -0.035 C 
ATOM     54  H   UNL     1     -47.650  37.680  27.001  1.00  0.00     0.043 H 
ATOM     55  H   UNL     1     -46.249  38.056  26.003  1.00  0.00     0.043 H 
ATOM     56  C   UNL     1     -47.269  34.828  26.814  1.00  0.00    -0.033 C 
ATOM     57  H   UNL     1     -45.388  34.438  27.827  1.00  0.00     0.029 H 
ATOM     58  H   UNL     1     -46.800  34.042  28.794  1.00  0.00     0.029 H 
ATOM     59  H   UNL     1     -47.469  36.140  25.083  1.00  0.00     0.029 H 
ATOM     60  H   UNL     1     -45.807  35.753  25.500  1.00  0.00     0.029 H 
BRANCH  56  61
ATOM     61  C   UNL     1     -47.112  33.507  26.038  1.00  0.00    -0.060 C 
ATOM     62  H   UNL     1     -46.584  33.666  25.091  1.00  0.00     0.024 H 
ATOM     63  H   UNL     1     -46.542  32.770  26.616  1.00  0.00     0.024 H 
ATOM     64  H   UNL     1     -48.088  33.066  25.809  1.00  0.00     0.024 H 
ENDBRANCH  56  61
BRANCH  56  65
ATOM     65  C   UNL     1     -48.756  34.994  27.175  1.00  0.00    -0.060 C 
ATOM     66  H   UNL     1     -49.152  34.082  27.635  1.00  0.00     0.024 H 
ATOM     67  H   UNL     1     -49.378  35.215  26.302  1.00  0.00     0.024 H 
ATOM     68  H   UNL     1     -48.896  35.814  27.891  1.00  0.00     0.024 H 
ENDBRANCH  56  65
ENDBRANCH  44  47
ENDBRANCH  41  44
ENDBRANCH   5  34
TORSDOF 8
ENDMDL
MODEL 2
REMARK VINA RESULT:      -7.5      5.532      7.565
REMARK SMILES CNc1cc(N2CC3(CN(c4ccc(CN5CCC(C)(C)CC5)cc4)CC(=O)N3)C2)ncn1
REMARK SMILES IDX 6 1 7 2 8 3 9 4 10 5 26 6 27 7 28 8 29 9 30 10 5 20 3 21
REMARK SMILES IDX 4 22 33 23 32 25 31 26 2 28 1 30 11 34 12 35 25 36 13 37
REMARK SMILES IDX 24 39 14 41 15 44 16 47 17 48 23 49 18 50 22 53 19 56 20 61
REMARK SMILES IDX 21 65
REMARK H PARENT 7 11 7 12 9 13 9 14 26 15 26 16 29 17 30 18 30 19 4 24 32 27
REMARK H PARENT 2 29 1 31 1 32 1 33 12 38 25 40 13 42 24 43 15 45 15 46 17 51
REMARK H PARENT 17 52 23 54 23 55 18 57 18 58 22 59 22 60 20 62 20 63 20 64
REMARK H PARENT 21 66 21 67 21 68
REMARK Flexibility Score: inf
ROOT
ATOM      1  N   UNL     1     -48.828  39.791  28.189  1.00  0.00    -0.351 N 
ATOM      2  C   UNL     1     -47.536  40.401  28.050  1.00  0.00     0.046 C 
ATOM      3  C   UNL     1     -46.932  39.023  28.417  1.00  0.00     0.092 C 
ATOM      4  C   UNL     1     -45.713  38.620  27.584  1.00  0.00     0.045 C 
ATOM      5  N   UNL     1     -45.148  37.333  28.048  1.00  0.00    -0.360 N 
ATOM      6  C   UNL     1     -44.693  37.406  29.458  1.00  0.00     0.097 C 
ATOM      7  C   UNL     1     -45.736  38.003  30.415  1.00  0.00     0.240 C 
ATOM      8  O   UNL     1     -45.709  37.800  31.629  1.00  0.00    -0.273 OA
ATOM      9  N   UNL     1     -46.681  38.848  29.885  1.00  0.00    -0.344 N 
ATOM     10  C   UNL     1     -48.305  38.468  27.956  1.00  0.00     0.046 C 
ATOM     11  H   UNL     1     -47.364  41.210  28.765  1.00  0.00     0.052 H 
ATOM     12  H   UNL     1     -47.340  40.749  27.030  1.00  0.00     0.052 H 
ATOM     13  H   UNL     1     -45.947  38.610  26.512  1.00  0.00     0.052 H 
ATOM     14  H   UNL     1     -44.932  39.385  27.697  1.00  0.00     0.052 H 
ATOM     15  H   UNL     1     -44.372  36.425  29.826  1.00  0.00     0.060 H 
ATOM     16  H   UNL     1     -43.815  38.062  29.500  1.00  0.00     0.060 H 
ATOM     17  H   UNL     1     -47.382  39.156  30.552  1.00  0.00     0.164 HD
ATOM     18  H   UNL     1     -48.766  37.710  28.594  1.00  0.00     0.052 H 
ATOM     19  H   UNL     1     -48.368  38.169  26.903  1.00  0.00     0.052 H 
ENDROOT
BRANCH   1  20
ATOM     20  C   UNL     1     -50.046  40.264  27.661  1.00  0.00     0.134 A 
ATOM     21  C   UNL     1     -51.307  41.892  26.486  1.00  0.00     0.131 A 
ATOM     22  C   UNL     1     -50.086  41.466  26.979  1.00  0.00     0.023 A 
ATOM     23  N   UNL     1     -52.424  41.180  26.681  1.00  0.00    -0.219 NA
ATOM     24  H   UNL     1     -49.199  42.071  26.852  1.00  0.00     0.070 H 
ATOM     25  C   UNL     1     -52.291  40.036  27.363  1.00  0.00     0.120 A 
ATOM     26  N   UNL     1     -51.155  39.535  27.859  1.00  0.00    -0.219 NA
ATOM     27  H   UNL     1     -53.193  39.457  27.527  1.00  0.00     0.106 H 
BRANCH  21  28
ATOM     28  N   UNL     1     -51.354  43.129  25.814  1.00  0.00    -0.373 N 
ATOM     29  H   UNL     1     -51.810  43.817  26.407  1.00  0.00     0.161 HD
BRANCH  28  30
ATOM     30  C   UNL     1     -50.067  43.601  25.330  1.00  0.00     0.005 C 
ATOM     31  H   UNL     1     -49.528  42.816  24.788  1.00  0.00     0.045 H 
ATOM     32  H   UNL     1     -50.231  44.426  24.630  1.00  0.00     0.045 H 
ATOM     33  H   UNL     1     -49.443  43.980  26.148  1.00  0.00     0.045 H 
ENDBRANCH  28  30
ENDBRANCH  21  28
ENDBRANCH   1  20
BRANCH   5  34
ATOM     34  C   UNL     1     -45.878  36.208  27.629  1.00  0.00     0.037 A 
ATOM     35  C   UNL     1     -46.771  36.331  26.551  1.00  0.00    -0.038 A 
ATOM     36  C   UNL     1     -45.778  34.945  28.229  1.00  0.00    -0.038 A 
ATOM     37  C   UNL     1     -47.566  35.262  26.126  1.00  0.00    -0.056 A 
ATOM     38  H   UNL     1     -46.851  37.274  26.017  1.00  0.00     0.064 H 
ATOM     39  C   UNL     1     -46.572  33.868  27.810  1.00  0.00    -0.056 A 
ATOM     40  H   UNL     1     -45.107  34.764  29.064  1.00  0.00     0.064 H 
ATOM     41  C   UNL     1     -47.486  34.021  26.763  1.00  0.00    -0.034 A 
ATOM     42  H   UNL     1     -48.258  35.404  25.300  1.00  0.00     0.063 H 
ATOM     43  H   UNL     1     -46.477  32.914  28.323  1.00  0.00     0.063 H 
BRANCH  41  44
ATOM     44  C   UNL     1     -48.363  32.869  26.324  1.00  0.00     0.023 C 
ATOM     45  H   UNL     1     -49.424  33.124  26.451  1.00  0.00     0.048 H 
ATOM     46  H   UNL     1     -48.159  32.044  27.020  1.00  0.00     0.048 H 
BRANCH  44  47
ATOM     47  N   UNL     1     -48.100  32.430  24.940  1.00  0.00    -0.299 NA
ATOM     48  C   UNL     1     -46.733  31.904  24.832  1.00  0.00    -0.001 C 
ATOM     49  C   UNL     1     -49.085  31.431  24.495  1.00  0.00    -0.001 C 
ATOM     50  C   UNL     1     -46.402  31.502  23.391  1.00  0.00    -0.035 C 
ATOM     51  H   UNL     1     -46.016  32.677  25.134  1.00  0.00     0.043 H 
ATOM     52  H   UNL     1     -46.583  31.052  25.508  1.00  0.00     0.043 H 
ATOM     53  C   UNL     1     -48.834  31.012  23.043  1.00  0.00    -0.035 C 
ATOM     54  H   UNL     1     -49.076  30.551  25.151  1.00  0.00     0.043 H 
ATOM     55  H   UNL     1     -50.098  31.847  24.539  1.00  0.00     0.043 H 
ATOM     56  C   UNL     1     -47.403  30.488  22.803  1.00  0.00    -0.033 C 
ATOM     57  H   UNL     1     -46.393  32.411  22.774  1.00  0.00     0.029 H 
ATOM     58  H   UNL     1     -45.382  31.096  23.354  1.00  0.00     0.029 H 
ATOM     59  H   UNL     1     -49.571  30.252  22.753  1.00  0.00     0.029 H 
ATOM     60  H   UNL     1     -49.019  31.882  22.397  1.00  0.00     0.029 H 
BRANCH  56  61
ATOM     61  C   UNL     1     -47.159  30.349  21.290  1.00  0.00    -0.060 C 
ATOM     62  H   UNL     1     -48.070  30.566  20.721  1.00  0.00     0.024 H 
ATOM     63  H   UNL     1     -46.380  31.040  20.946  1.00  0.00     0.024 H 
ATOM     64  H   UNL     1     -46.838  29.333  21.033  1.00  0.00     0.024 H 
ENDBRANCH  56  61
BRANCH  56  65
ATOM     65  C   UNL     1     -47.217  29.101  23.445  1.00  0.00    -0.060 C 
ATOM     66  H   UNL     1     -46.156  28.837  23.506  1.00  0.00     0.024 H 
ATOM     67  H   UNL     1     -47.719  28.308  22.884  1.00  0.00     0.024 H 
ATOM     68  H   UNL     1     -47.621  29.085  24.465  1.00  0.00     0.024 H 
ENDBRANCH  56  65
ENDBRANCH  44  47
ENDBRANCH  41  44
ENDBRANCH   5  34
TORSDOF 8
ENDMDL
MODEL 3
REMARK VINA RESULT:      -7.2      3.145      4.978
REMARK SMILES CNc1cc(N2CC3(CN(c4ccc(CN5CCC(C)(C)CC5)cc4)CC(=O)N3)C2)ncn1
REMARK SMILES IDX 6 1 7 2 8 3 9 4 10 5 26 6 27 7 28 8 29 9 30 10 5 20 3 21
REMARK SMILES IDX 4 22 33 23 32 25 31 26 2 28 1 30 11 34 12 35 25 36 13 37
REMARK SMILES IDX 24 39 14 41 15 44 16 47 17 48 23 49 18 50 22 53 19 56 20 61
REMARK SMILES IDX 21 65
REMARK H PARENT 7 11 7 12 9 13 9 14 26 15 26 16 29 17 30 18 30 19 4 24 32 27
REMARK H PARENT 2 29 1 31 1 32 1 33 12 38 25 40 13 42 24 43 15 45 15 46 17 51
REMARK H PARENT 17 52 23 54 23 55 18 57 18 58 22 59 22 60 20 62 20 63 20 64
REMARK H PARENT 21 66 21 67 21 68
REMARK Flexibility Score: inf
ROOT
ATOM      1  N   UNL     1     -47.436  44.042  25.517  1.00  0.00    -0.351 N 
ATOM      2  C   UNL     1     -46.269  44.415  24.769  1.00  0.00     0.046 C 
ATOM      3  C   UNL     1     -45.444  43.607  25.801  1.00  0.00     0.092 C 
ATOM      4  C   UNL     1     -44.323  42.759  25.198  1.00  0.00     0.045 C 
ATOM      5  N   UNL     1     -43.534  42.084  26.253  1.00  0.00    -0.360 N 
ATOM      6  C   UNL     1     -42.885  43.057  27.165  1.00  0.00     0.097 C 
ATOM      7  C   UNL     1     -43.841  44.134  27.703  1.00  0.00     0.240 C 
ATOM      8  O   UNL     1     -43.605  44.770  28.730  1.00  0.00    -0.273 OA
ATOM      9  N   UNL     1     -44.956  44.430  26.955  1.00  0.00    -0.344 N 
ATOM     10  C   UNL     1     -46.788  42.886  26.084  1.00  0.00     0.046 C 
ATOM     11  H   UNL     1     -46.096  45.494  24.750  1.00  0.00     0.052 H 
ATOM     12  H   UNL     1     -46.274  44.015  23.749  1.00  0.00     0.052 H 
ATOM     13  H   UNL     1     -44.712  42.054  24.453  1.00  0.00     0.052 H 
ATOM     14  H   UNL     1     -43.638  43.413  24.639  1.00  0.00     0.052 H 
ATOM     15  H   UNL     1     -42.389  42.552  28.001  1.00  0.00     0.060 H 
ATOM     16  H   UNL     1     -42.102  43.582  26.604  1.00  0.00     0.060 H 
ATOM     17  H   UNL     1     -45.582  45.098  27.394  1.00  0.00     0.164 HD
ATOM     18  H   UNL     1     -47.046  42.726  27.133  1.00  0.00     0.052 H 
ATOM     19  H   UNL     1     -46.969  41.973  25.504  1.00  0.00     0.052 H 
ENDROOT
BRANCH   1  20
ATOM     20  C   UNL     1     -48.770  44.058  25.063  1.00  0.00     0.134 A 
ATOM     21  C   UNL     1     -50.511  45.011  23.766  1.00  0.00     0.131 A 
ATOM     22  C   UNL     1     -49.190  45.033  24.177  1.00  0.00     0.023 A 
ATOM     23  N   UNL     1     -51.369  44.092  24.227  1.00  0.00    -0.219 NA
ATOM     24  H   UNL     1     -48.518  45.806  23.831  1.00  0.00     0.070 H 
ATOM     25  C   UNL     1     -50.876  43.195  25.090  1.00  0.00     0.120 A 
ATOM     26  N   UNL     1     -49.615  43.125  25.528  1.00  0.00    -0.219 NA
ATOM     27  H   UNL     1     -51.568  42.450  25.469  1.00  0.00     0.106 H 
BRANCH  21  28
ATOM     28  N   UNL     1     -50.947  46.020  22.885  1.00  0.00    -0.373 N 
ATOM     29  H   UNL     1     -51.699  45.657  22.305  1.00  0.00     0.161 HD
BRANCH  28  30
ATOM     30  C   UNL     1     -51.318  47.267  23.534  1.00  0.00     0.005 C 
ATOM     31  H   UNL     1     -52.377  47.503  23.374  1.00  0.00     0.045 H 
ATOM     32  H   UNL     1     -51.167  47.165  24.613  1.00  0.00     0.045 H 
ATOM     33  H   UNL     1     -50.697  48.101  23.190  1.00  0.00     0.045 H 
ENDBRANCH  28  30
ENDBRANCH  21  28
ENDBRANCH   1  20
BRANCH   5  34
ATOM     34  C   UNL     1     -44.168  40.957  26.803  1.00  0.00     0.037 A 
ATOM     35  C   UNL     1     -45.166  40.301  26.063  1.00  0.00    -0.038 A 
ATOM     36  C   UNL     1     -43.869  40.435  28.069  1.00  0.00    -0.038 A 
ATOM     37  C   UNL     1     -45.870  39.210  26.582  1.00  0.00    -0.056 A 
ATOM     38  H   UNL     1     -45.402  40.633  25.056  1.00  0.00     0.064 H 
ATOM     39  C   UNL     1     -44.571  39.343  28.596  1.00  0.00    -0.056 A 
ATOM     40  H   UNL     1     -43.106  40.880  28.701  1.00  0.00     0.064 H 
ATOM     41  C   UNL     1     -45.591  38.729  27.863  1.00  0.00    -0.034 A 
ATOM     42  H   UNL     1     -46.649  38.743  25.984  1.00  0.00     0.063 H 
ATOM     43  H   UNL     1     -44.321  38.988  29.594  1.00  0.00     0.063 H 
BRANCH  41  44
ATOM     44  C   UNL     1     -46.369  37.565  28.438  1.00  0.00     0.023 C 
ATOM     45  H   UNL     1     -47.438  37.810  28.497  1.00  0.00     0.048 H 
ATOM     46  H   UNL     1     -46.023  37.446  29.474  1.00  0.00     0.048 H 
BRANCH  44  47
ATOM     47  N   UNL     1     -46.169  36.306  27.696  1.00  0.00    -0.299 NA
ATOM     48  C   UNL     1     -46.587  35.165  28.522  1.00  0.00    -0.001 C 
ATOM     49  C   UNL     1     -46.889  36.318  26.412  1.00  0.00    -0.001 C 
ATOM     50  C   UNL     1     -46.329  33.835  27.808  1.00  0.00    -0.035 C 
ATOM     51  H   UNL     1     -46.011  35.157  29.456  1.00  0.00     0.043 H 
ATOM     52  H   UNL     1     -47.645  35.247  28.802  1.00  0.00     0.043 H 
ATOM     53  C   UNL     1     -46.643  35.026  25.625  1.00  0.00    -0.035 C 
ATOM     54  H   UNL     1     -47.965  36.468  26.566  1.00  0.00     0.043 H 
ATOM     55  H   UNL     1     -46.541  37.146  25.786  1.00  0.00     0.043 H 
ATOM     56  C   UNL     1     -47.001  33.755  26.422  1.00  0.00    -0.033 C 
ATOM     57  H   UNL     1     -45.243  33.708  27.697  1.00  0.00     0.029 H 
ATOM     58  H   UNL     1     -46.670  33.009  28.445  1.00  0.00     0.029 H 
ATOM     59  H   UNL     1     -47.211  35.060  24.687  1.00  0.00     0.029 H 
ATOM     60  H   UNL     1     -45.581  34.994  25.341  1.00  0.00     0.029 H 
BRANCH  56  61
ATOM     61  C   UNL     1     -46.475  32.518  25.671  1.00  0.00    -0.060 C 
ATOM     62  H   UNL     1     -45.415  32.631  25.418  1.00  0.00     0.024 H 
ATOM     63  H   UNL     1     -46.577  31.610  26.277  1.00  0.00     0.024 H 
ATOM     64  H   UNL     1     -47.028  32.359  24.739  1.00  0.00     0.024 H 
ENDBRANCH  56  61
BRANCH  56  65
ATOM     65  C   UNL     1     -48.527  33.613  26.563  1.00  0.00    -0.060 C 
ATOM     66  H   UNL     1     -49.000  33.474  25.584  1.00  0.00     0.024 H 
ATOM     67  H   UNL     1     -48.989  34.490  27.027  1.00  0.00     0.024 H 
ATOM     68  H   UNL     1     -48.784  32.744  27.181  1.00  0.00     0.024 H 
ENDBRANCH  56  65
ENDBRANCH  44  47
ENDBRANCH  41  44
ENDBRANCH   5  34
TORSDOF 8
ENDMDL
MODEL 4
REMARK VINA RESULT:      -7.1      3.314      4.429
REMARK SMILES CNc1cc(N2CC3(CN(c4ccc(CN5CCC(C)(C)CC5)cc4)CC(=O)N3)C2)ncn1
REMARK SMILES IDX 6 1 7 2 8 3 9 4 10 5 26 6 27 7 28 8 29 9 30 10 5 20 3 21
REMARK SMILES IDX 4 22 33 23 32 25 31 26 2 28 1 30 11 34 12 35 25 36 13 37
REMARK SMILES IDX 24 39 14 41 15 44 16 47 17 48 23 49 18 50 22 53 19 56 20 61
REMARK SMILES IDX 21 65
REMARK H PARENT 7 11 7 12 9 13 9 14 26 15 26 16 29 17 30 18 30 19 4 24 32 27
REMARK H PARENT 2 29 1 31 1 32 1 33 12 38 25 40 13 42 24 43 15 45 15 46 17 51
REMARK H PARENT 17 52 23 54 23 55 18 57 18 58 22 59 22 60 20 62 20 63 20 64
REMARK H PARENT 21 66 21 67 21 68
REMARK Flexibility Score: inf
ROOT
ATOM      1  N   UNL     1     -46.944  43.796  25.942  1.00  0.00    -0.351 N 
ATOM      2  C   UNL     1     -45.836  43.712  25.034  1.00  0.00     0.046 C 
ATOM      3  C   UNL     1     -45.245  42.636  25.977  1.00  0.00     0.092 C 
ATOM      4  C   UNL     1     -44.619  41.436  25.263  1.00  0.00     0.045 C 
ATOM      5  N   UNL     1     -44.008  40.496  26.229  1.00  0.00    -0.360 N 
ATOM      6  C   UNL     1     -42.922  41.136  27.011  1.00  0.00     0.097 C 
ATOM      7  C   UNL     1     -43.319  42.486  27.630  1.00  0.00     0.240 C 
ATOM      8  O   UNL     1     -42.724  42.968  28.594  1.00  0.00    -0.273 OA
ATOM      9  N   UNL     1     -44.330  43.194  27.026  1.00  0.00    -0.344 N 
ATOM     10  C   UNL     1     -46.709  42.472  26.460  1.00  0.00     0.046 C 
ATOM     11  H   UNL     1     -45.274  44.646  24.953  1.00  0.00     0.052 H 
ATOM     12  H   UNL     1     -46.130  43.361  24.039  1.00  0.00     0.052 H 
ATOM     13  H   UNL     1     -45.343  40.943  24.602  1.00  0.00     0.052 H 
ATOM     14  H   UNL     1     -43.821  41.792  24.596  1.00  0.00     0.052 H 
ATOM     15  H   UNL     1     -42.544  40.467  27.792  1.00  0.00     0.060 H 
ATOM     16  H   UNL     1     -42.083  41.335  26.333  1.00  0.00     0.060 H 
ATOM     17  H   UNL     1     -44.593  44.042  27.519  1.00  0.00     0.164 HD
ATOM     18  H   UNL     1     -46.864  42.405  27.540  1.00  0.00     0.052 H 
ATOM     19  H   UNL     1     -47.299  41.706  25.943  1.00  0.00     0.052 H 
ENDROOT
BRANCH   1  20
ATOM     20  C   UNL     1     -48.222  44.323  25.668  1.00  0.00     0.134 A 
ATOM     21  C   UNL     1     -50.413  44.921  26.351  1.00  0.00     0.131 A 
ATOM     22  C   UNL     1     -49.171  44.403  26.671  1.00  0.00     0.023 A 
ATOM     23  N   UNL     1     -50.704  45.312  25.103  1.00  0.00    -0.219 NA
ATOM     24  H   UNL     1     -48.961  44.051  27.672  1.00  0.00     0.070 H 
ATOM     25  C   UNL     1     -49.728  45.187  24.196  1.00  0.00     0.120 A 
ATOM     26  N   UNL     1     -48.496  44.718  24.414  1.00  0.00    -0.219 NA
ATOM     27  H   UNL     1     -49.960  45.500  23.183  1.00  0.00     0.106 H 
BRANCH  21  28
ATOM     28  N   UNL     1     -51.388  44.978  27.365  1.00  0.00    -0.373 N 
ATOM     29  H   UNL     1     -52.304  45.104  26.945  1.00  0.00     0.161 HD
BRANCH  28  30
ATOM     30  C   UNL     1     -51.366  43.852  28.285  1.00  0.00     0.005 C 
ATOM     31  H   UNL     1     -52.374  43.465  28.471  1.00  0.00     0.045 H 
ATOM     32  H   UNL     1     -50.783  43.041  27.839  1.00  0.00     0.045 H 
ATOM     33  H   UNL     1     -50.891  44.118  29.236  1.00  0.00     0.045 H 
ENDBRANCH  28  30
ENDBRANCH  21  28
ENDBRANCH   1  20
BRANCH   5  34
ATOM     34  C   UNL     1     -44.938  39.684  26.898  1.00  0.00     0.037 A 
ATOM     35  C   UNL     1     -44.725  39.363  28.249  1.00  0.00    -0.038 A 
ATOM     36  C   UNL     1     -46.089  39.156  26.294  1.00  0.00    -0.038 A 
ATOM     37  C   UNL     1     -45.586  38.514  28.950  1.00  0.00    -0.056 A 
ATOM     38  H   UNL     1     -43.876  39.786  28.779  1.00  0.00     0.064 H 
ATOM     39  C   UNL     1     -46.956  38.302  26.990  1.00  0.00    -0.056 A 
ATOM     40  H   UNL     1     -46.330  39.361  25.256  1.00  0.00     0.064 H 
ATOM     41  C   UNL     1     -46.704  37.960  28.322  1.00  0.00    -0.034 A 
ATOM     42  H   UNL     1     -45.373  38.275  29.990  1.00  0.00     0.063 H 
ATOM     43  H   UNL     1     -47.822  37.897  26.473  1.00  0.00     0.063 H 
BRANCH  41  44
ATOM     44  C   UNL     1     -47.624  37.019  29.070  1.00  0.00     0.023 C 
ATOM     45  H   UNL     1     -48.638  37.436  29.124  1.00  0.00     0.048 H 
ATOM     46  H   UNL     1     -47.251  36.982  30.102  1.00  0.00     0.048 H 
BRANCH  44  47
ATOM     47  N   UNL     1     -47.655  35.659  28.500  1.00  0.00    -0.299 NA
ATOM     48  C   UNL     1     -48.366  35.670  27.214  1.00  0.00    -0.001 C 
ATOM     49  C   UNL     1     -46.298  35.109  28.346  1.00  0.00    -0.001 C 
ATOM     50  C   UNL     1     -48.477  34.260  26.626  1.00  0.00    -0.035 C 
ATOM     51  H   UNL     1     -49.385  36.049  27.361  1.00  0.00     0.043 H 
ATOM     52  H   UNL     1     -47.877  36.343  26.499  1.00  0.00     0.043 H 
ATOM     53  C   UNL     1     -46.337  33.679  27.795  1.00  0.00    -0.035 C 
ATOM     54  H   UNL     1     -45.686  35.748  27.697  1.00  0.00     0.043 H 
ATOM     55  H   UNL     1     -45.791  35.065  29.316  1.00  0.00     0.043 H 
ATOM     56  C   UNL     1     -47.110  33.565  26.465  1.00  0.00    -0.033 C 
ATOM     57  H   UNL     1     -49.118  33.660  27.287  1.00  0.00     0.029 H 
ATOM     58  H   UNL     1     -48.995  34.310  25.660  1.00  0.00     0.029 H 
ATOM     59  H   UNL     1     -45.311  33.310  27.673  1.00  0.00     0.029 H 
ATOM     60  H   UNL     1     -46.809  33.033  28.550  1.00  0.00     0.029 H 
BRANCH  56  61
ATOM     61  C   UNL     1     -47.329  32.078  26.130  1.00  0.00    -0.060 C 
ATOM     62  H   UNL     1     -47.048  31.438  26.974  1.00  0.00     0.024 H 
ATOM     63  H   UNL     1     -48.380  31.874  25.893  1.00  0.00     0.024 H 
ATOM     64  H   UNL     1     -46.730  31.776  25.265  1.00  0.00     0.024 H 
ENDBRANCH  56  61
BRANCH  56  65
ATOM     65  C   UNL     1     -46.307  34.199  25.314  1.00  0.00    -0.060 C 
ATOM     66  H   UNL     1     -46.234  35.285  25.439  1.00  0.00     0.024 H 
ATOM     67  H   UNL     1     -46.759  34.013  24.335  1.00  0.00     0.024 H 
ATOM     68  H   UNL     1     -45.286  33.800  25.284  1.00  0.00     0.024 H 
ENDBRANCH  56  65
ENDBRANCH  44  47
ENDBRANCH  41  44
ENDBRANCH   5  34
TORSDOF 8
ENDMDL
MODEL 5
REMARK VINA RESULT:      -7.0      3.567      5.347
REMARK SMILES CNc1cc(N2CC3(CN(c4ccc(CN5CCC(C)(C)CC5)cc4)CC(=O)N3)C2)ncn1
REMARK SMILES IDX 6 1 7 2 8 3 9 4 10 5 26 6 27 7 28 8 29 9 30 10 5 20 3 21
REMARK SMILES IDX 4 22 33 23 32 25 31 26 2 28 1 30 11 34 12 35 25 36 13 37
REMARK SMILES IDX 24 39 14 41 15 44 16 47 17 48 23 49 18 50 22 53 19 56 20 61
REMARK SMILES IDX 21 65
REMARK H PARENT 7 11 7 12 9 13 9 14 26 15 26 16 29 17 30 18 30 19 4 24 32 27
REMARK H PARENT 2 29 1 31 1 32 1 33 12 38 25 40 13 42 24 43 15 45 15 46 17 51
REMARK H PARENT 17 52 23 54 23 55 18 57 18 58 22 59 22 60 20 62 20 63 20 64
REMARK H PARENT 21 66 21 67 21 68
REMARK Flexibility Score: inf
ROOT
ATOM      1  N   UNL     1     -45.695  44.256  25.391  1.00  0.00    -0.351 N 
ATOM      2  C   UNL     1     -46.232  45.549  25.708  1.00  0.00     0.046 C 
ATOM      3  C   UNL     1     -47.622  44.870  25.778  1.00  0.00     0.092 C 
ATOM      4  C   UNL     1     -48.501  45.337  26.940  1.00  0.00     0.045 C 
ATOM      5  N   UNL     1     -49.837  44.702  26.889  1.00  0.00    -0.360 N 
ATOM      6  C   UNL     1     -50.565  45.044  25.643  1.00  0.00     0.097 C 
ATOM      7  C   UNL     1     -49.735  44.838  24.365  1.00  0.00     0.240 C 
ATOM      8  O   UNL     1     -50.254  44.696  23.259  1.00  0.00    -0.273 OA
ATOM      9  N   UNL     1     -48.366  44.890  24.477  1.00  0.00    -0.344 N 
ATOM     10  C   UNL     1     -46.806  43.570  26.001  1.00  0.00     0.046 C 
ATOM     11  H   UNL     1     -46.091  46.281  24.908  1.00  0.00     0.052 H 
ATOM     12  H   UNL     1     -45.849  45.946  26.655  1.00  0.00     0.052 H 
ATOM     13  H   UNL     1     -48.002  45.184  27.905  1.00  0.00     0.052 H 
ATOM     14  H   UNL     1     -48.648  46.424  26.865  1.00  0.00     0.052 H 
ATOM     15  H   UNL     1     -51.507  44.491  25.565  1.00  0.00     0.060 H 
ATOM     16  H   UNL     1     -50.826  46.109  25.680  1.00  0.00     0.060 H 
ATOM     17  H   UNL     1     -47.873  44.679  23.615  1.00  0.00     0.164 HD
ATOM     18  H   UNL     1     -47.124  42.690  25.436  1.00  0.00     0.052 H 
ATOM     19  H   UNL     1     -46.614  43.302  27.047  1.00  0.00     0.052 H 
ENDROOT
BRANCH   1  20
ATOM     20  C   UNL     1     -44.352  43.848  25.509  1.00  0.00     0.134 A 
ATOM     21  C   UNL     1     -42.572  42.897  26.754  1.00  0.00     0.131 A 
ATOM     22  C   UNL     1     -43.901  43.275  26.684  1.00  0.00     0.023 A 
ATOM     23  N   UNL     1     -41.735  43.100  25.728  1.00  0.00    -0.219 NA
ATOM     24  H   UNL     1     -44.557  43.145  27.534  1.00  0.00     0.070 H 
ATOM     25  C   UNL     1     -42.257  43.672  24.636  1.00  0.00     0.120 A 
ATOM     26  N   UNL     1     -43.527  44.052  24.470  1.00  0.00    -0.219 NA
ATOM     27  H   UNL     1     -41.582  43.841  23.804  1.00  0.00     0.106 H 
BRANCH  21  28
ATOM     28  N   UNL     1     -42.105  42.337  27.959  1.00  0.00    -0.373 N 
ATOM     29  H   UNL     1     -41.971  43.076  28.643  1.00  0.00     0.161 HD
BRANCH  28  30
ATOM     30  C   UNL     1     -42.931  41.260  28.482  1.00  0.00     0.005 C 
ATOM     31  H   UNL     1     -43.396  40.682  27.676  1.00  0.00     0.045 H 
ATOM     32  H   UNL     1     -42.298  40.573  29.052  1.00  0.00     0.045 H 
ATOM     33  H   UNL     1     -43.704  41.638  29.160  1.00  0.00     0.045 H 
ENDBRANCH  28  30
ENDBRANCH  21  28
ENDBRANCH   1  20
BRANCH   5  34
ATOM     34  C   UNL     1     -49.851  43.372  27.339  1.00  0.00     0.037 A 
ATOM     35  C   UNL     1     -50.373  42.369  26.505  1.00  0.00    -0.038 A 
ATOM     36  C   UNL     1     -49.375  42.968  28.595  1.00  0.00    -0.038 A 
ATOM     37  C   UNL     1     -50.465  41.037  26.920  1.00  0.00    -0.056 A 
ATOM     38  H   UNL     1     -50.710  42.618  25.502  1.00  0.00     0.064 H 
ATOM     39  C   UNL     1     -49.465  41.635  29.020  1.00  0.00    -0.056 A 
ATOM     40  H   UNL     1     -48.950  43.679  29.297  1.00  0.00     0.064 H 
ATOM     41  C   UNL     1     -50.025  40.659  28.192  1.00  0.00    -0.034 A 
ATOM     42  H   UNL     1     -50.893  40.295  26.250  1.00  0.00     0.063 H 
ATOM     43  H   UNL     1     -49.104  41.374  30.012  1.00  0.00     0.063 H 
BRANCH  41  44
ATOM     44  C   UNL     1     -50.148  39.223  28.655  1.00  0.00     0.023 C 
ATOM     45  H   UNL     1     -51.204  38.928  28.715  1.00  0.00     0.048 H 
ATOM     46  H   UNL     1     -49.763  39.199  29.684  1.00  0.00     0.048 H 
BRANCH  44  47
ATOM     47  N   UNL     1     -49.394  38.273  27.816  1.00  0.00    -0.299 NA
ATOM     48  C   UNL     1     -47.953  38.536  27.932  1.00  0.00    -0.001 C 
ATOM     49  C   UNL     1     -49.703  36.878  28.171  1.00  0.00    -0.001 C 
ATOM     50  C   UNL     1     -47.142  37.611  27.019  1.00  0.00    -0.035 C 
ATOM     51  H   UNL     1     -47.743  39.569  27.628  1.00  0.00     0.043 H 
ATOM     52  H   UNL     1     -47.615  38.437  28.971  1.00  0.00     0.043 H 
ATOM     53  C   UNL     1     -48.951  35.895  27.268  1.00  0.00    -0.035 C 
ATOM     54  H   UNL     1     -49.470  36.680  29.225  1.00  0.00     0.043 H 
ATOM     55  H   UNL     1     -50.773  36.679  28.042  1.00  0.00     0.043 H 
ATOM     56  C   UNL     1     -47.425  36.117  27.272  1.00  0.00    -0.033 C 
ATOM     57  H   UNL     1     -47.382  37.859  25.976  1.00  0.00     0.029 H 
ATOM     58  H   UNL     1     -46.072  37.823  27.147  1.00  0.00     0.029 H 
ATOM     59  H   UNL     1     -49.188  34.869  27.574  1.00  0.00     0.029 H 
ATOM     60  H   UNL     1     -49.335  36.007  26.244  1.00  0.00     0.029 H 
BRANCH  56  61
ATOM     61  C   UNL     1     -46.786  35.279  26.149  1.00  0.00    -0.060 C 
ATOM     62  H   UNL     1     -47.167  35.579  25.167  1.00  0.00     0.024 H 
ATOM     63  H   UNL     1     -45.696  35.399  26.133  1.00  0.00     0.024 H 
ATOM     64  H   UNL     1     -47.000  34.213  26.282  1.00  0.00     0.024 H 
ENDBRANCH  56  61
BRANCH  56  65
ATOM     65  C   UNL     1     -46.813  35.664  28.611  1.00  0.00    -0.060 C 
ATOM     66  H   UNL     1     -46.536  36.527  29.227  1.00  0.00     0.024 H 
ATOM     67  H   UNL     1     -45.914  35.056  28.477  1.00  0.00     0.024 H 
ATOM     68  H   UNL     1     -47.530  35.064  29.185  1.00  0.00     0.024 H 
ENDBRANCH  56  65
ENDBRANCH  44  47
ENDBRANCH  41  44
ENDBRANCH   5  34
TORSDOF 8
ENDMDL
MODEL 6
REMARK VINA RESULT:      -7.0      3.351      8.367
REMARK SMILES CNc1cc(N2CC3(CN(c4ccc(CN5CCC(C)(C)CC5)cc4)CC(=O)N3)C2)ncn1
REMARK SMILES IDX 6 1 7 2 8 3 9 4 10 5 26 6 27 7 28 8 29 9 30 10 5 20 3 21
REMARK SMILES IDX 4 22 33 23 32 25 31 26 2 28 1 30 11 34 12 35 25 36 13 37
REMARK SMILES IDX 24 39 14 41 15 44 16 47 17 48 23 49 18 50 22 53 19 56 20 61
REMARK SMILES IDX 21 65
REMARK H PARENT 7 11 7 12 9 13 9 14 26 15 26 16 29 17 30 18 30 19 4 24 32 27
REMARK H PARENT 2 29 1 31 1 32 1 33 12 38 25 40 13 42 24 43 15 45 15 46 17 51
REMARK H PARENT 17 52 23 54 23 55 18 57 18 58 22 59 22 60 20 62 20 63 20 64
REMARK H PARENT 21 66 21 67 21 68
REMARK Flexibility Score: inf
ROOT
ATOM      1  N   UNL     1     -47.999  39.650  28.399  1.00  0.00    -0.351 N 
ATOM      2  C   UNL     1     -49.385  39.705  28.032  1.00  0.00     0.046 C 
ATOM      3  C   UNL     1     -49.272  41.246  28.139  1.00  0.00     0.092 C 
ATOM      4  C   UNL     1     -49.988  42.016  27.028  1.00  0.00     0.045 C 
ATOM      5  N   UNL     1     -49.901  43.477  27.247  1.00  0.00    -0.360 N 
ATOM      6  C   UNL     1     -50.538  43.884  28.523  1.00  0.00     0.097 C 
ATOM      7  C   UNL     1     -50.087  43.051  29.733  1.00  0.00     0.240 C 
ATOM      8  O   UNL     1     -50.192  43.459  30.890  1.00  0.00    -0.273 OA
ATOM      9  N   UNL     1     -49.619  41.780  29.496  1.00  0.00    -0.344 N 
ATOM     10  C   UNL     1     -47.754  40.996  27.946  1.00  0.00     0.046 C 
ATOM     11  H   UNL     1     -50.042  39.217  28.756  1.00  0.00     0.052 H 
ATOM     12  H   UNL     1     -49.573  39.312  27.026  1.00  0.00     0.052 H 
ATOM     13  H   UNL     1     -49.622  41.720  26.037  1.00  0.00     0.052 H 
ATOM     14  H   UNL     1     -51.053  41.744  27.031  1.00  0.00     0.052 H 
ATOM     15  H   UNL     1     -50.381  44.949  28.728  1.00  0.00     0.060 H 
ATOM     16  H   UNL     1     -51.621  43.738  28.426  1.00  0.00     0.060 H 
ATOM     17  H   UNL     1     -49.273  41.306  30.324  1.00  0.00     0.164 HD
ATOM     18  H   UNL     1     -47.079  41.549  28.604  1.00  0.00     0.052 H 
ATOM     19  H   UNL     1     -47.393  41.034  26.911  1.00  0.00     0.052 H 
ENDROOT
BRANCH   1  20
ATOM     20  C   UNL     1     -47.114  38.572  28.193  1.00  0.00     0.134 A 
ATOM     21  C   UNL     1     -46.532  36.537  27.124  1.00  0.00     0.131 A 
ATOM     22  C   UNL     1     -47.430  37.577  27.286  1.00  0.00     0.023 A 
ATOM     23  N   UNL     1     -45.401  36.474  27.840  1.00  0.00    -0.219 NA
ATOM     24  H   UNL     1     -48.359  37.595  26.734  1.00  0.00     0.070 H 
ATOM     25  C   UNL     1     -45.185  37.475  28.702  1.00  0.00     0.120 A 
ATOM     26  N   UNL     1     -45.981  38.528  28.912  1.00  0.00    -0.219 NA
ATOM     27  H   UNL     1     -44.272  37.428  29.286  1.00  0.00     0.106 H 
BRANCH  21  28
ATOM     28  N   UNL     1     -46.865  35.510  26.220  1.00  0.00    -0.373 N 
ATOM     29  H   UNL     1     -46.048  34.928  26.057  1.00  0.00     0.161 HD
BRANCH  28  30
ATOM     30  C   UNL     1     -48.023  34.719  26.607  1.00  0.00     0.005 C 
ATOM     31  H   UNL     1     -47.735  33.857  27.219  1.00  0.00     0.045 H 
ATOM     32  H   UNL     1     -48.690  35.340  27.212  1.00  0.00     0.045 H 
ATOM     33  H   UNL     1     -48.589  34.379  25.733  1.00  0.00     0.045 H 
ENDBRANCH  28  30
ENDBRANCH  21  28
ENDBRANCH   1  20
BRANCH   5  34
ATOM     34  C   UNL     1     -48.655  44.030  26.905  1.00  0.00     0.037 A 
ATOM     35  C   UNL     1     -47.997  43.578  25.749  1.00  0.00    -0.038 A 
ATOM     36  C   UNL     1     -48.007  45.019  27.658  1.00  0.00    -0.038 A 
ATOM     37  C   UNL     1     -46.730  44.049  25.389  1.00  0.00    -0.056 A 
ATOM     38  H   UNL     1     -48.476  42.848  25.102  1.00  0.00     0.064 H 
ATOM     39  C   UNL     1     -46.737  45.496  27.305  1.00  0.00    -0.056 A 
ATOM     40  H   UNL     1     -48.451  45.427  28.561  1.00  0.00     0.064 H 
ATOM     41  C   UNL     1     -46.079  45.003  26.175  1.00  0.00    -0.034 A 
ATOM     42  H   UNL     1     -46.247  43.658  24.497  1.00  0.00     0.063 H 
ATOM     43  H   UNL     1     -46.264  46.246  27.934  1.00  0.00     0.063 H 
BRANCH  41  44
ATOM     44  C   UNL     1     -44.697  45.496  25.804  1.00  0.00     0.023 C 
ATOM     45  H   UNL     1     -44.559  46.535  26.133  1.00  0.00     0.048 H 
ATOM     46  H   UNL     1     -44.662  45.513  24.706  1.00  0.00     0.048 H 
BRANCH  44  47
ATOM     47  N   UNL     1     -43.614  44.641  26.325  1.00  0.00    -0.299 NA
ATOM     48  C   UNL     1     -44.047  43.983  27.565  1.00  0.00    -0.001 C 
ATOM     49  C   UNL     1     -43.182  43.650  25.327  1.00  0.00    -0.001 C 
ATOM     50  C   UNL     1     -42.922  43.140  28.172  1.00  0.00    -0.035 C 
ATOM     51  H   UNL     1     -44.329  44.742  28.305  1.00  0.00     0.043 H 
ATOM     52  H   UNL     1     -44.936  43.363  27.393  1.00  0.00     0.043 H 
ATOM     53  C   UNL     1     -42.027  42.794  25.857  1.00  0.00    -0.035 C 
ATOM     54  H   UNL     1     -44.019  43.010  25.021  1.00  0.00     0.043 H 
ATOM     55  H   UNL     1     -42.821  44.151  24.422  1.00  0.00     0.043 H 
ATOM     56  C   UNL     1     -42.357  42.093  27.191  1.00  0.00    -0.033 C 
ATOM     57  H   UNL     1     -42.117  43.817  28.490  1.00  0.00     0.029 H 
ATOM     58  H   UNL     1     -43.288  42.650  29.083  1.00  0.00     0.029 H 
ATOM     59  H   UNL     1     -41.747  42.054  25.097  1.00  0.00     0.029 H 
ATOM     60  H   UNL     1     -41.151  43.444  25.991  1.00  0.00     0.029 H 
BRANCH  56  61
ATOM     61  C   UNL     1     -41.070  41.486  27.778  1.00  0.00    -0.060 C 
ATOM     62  H   UNL     1     -40.721  40.641  27.175  1.00  0.00     0.024 H 
ATOM     63  H   UNL     1     -40.261  42.225  27.815  1.00  0.00     0.024 H 
ATOM     64  H   UNL     1     -41.235  41.124  28.799  1.00  0.00     0.024 H 
ENDBRANCH  56  61
BRANCH  56  65
ATOM     65  C   UNL     1     -43.365  40.951  26.970  1.00  0.00    -0.060 C 
ATOM     66  H   UNL     1     -44.228  41.297  26.389  1.00  0.00     0.024 H 
ATOM     67  H   UNL     1     -43.748  40.542  27.910  1.00  0.00     0.024 H 
ATOM     68  H   UNL     1     -42.904  40.123  26.417  1.00  0.00     0.024 H 
ENDBRANCH  56  65
ENDBRANCH  44  47
ENDBRANCH  41  44
ENDBRANCH   5  34
TORSDOF 8
ENDMDL
MODEL 7
REMARK VINA RESULT:      -7.0      4.226      9.288
REMARK SMILES CNc1cc(N2CC3(CN(c4ccc(CN5CCC(C)(C)CC5)cc4)CC(=O)N3)C2)ncn1
REMARK SMILES IDX 6 1 7 2 8 3 9 4 10 5 26 6 27 7 28 8 29 9 30 10 5 20 3 21
REMARK SMILES IDX 4 22 33 23 32 25 31 26 2 28 1 30 11 34 12 35 25 36 13 37
REMARK SMILES IDX 24 39 14 41 15 44 16 47 17 48 23 49 18 50 22 53 19 56 20 61
REMARK SMILES IDX 21 65
REMARK H PARENT 7 11 7 12 9 13 9 14 26 15 26 16 29 17 30 18 30 19 4 24 32 27
REMARK H PARENT 2 29 1 31 1 32 1 33 12 38 25 40 13 42 24 43 15 45 15 46 17 51
REMARK H PARENT 17 52 23 54 23 55 18 57 18 58 22 59 22 60 20 62 20 63 20 64
REMARK H PARENT 21 66 21 67 21 68
REMARK Flexibility Score: inf
ROOT
ATOM      1  N   UNL     1     -49.749  38.156  28.435  1.00  0.00    -0.351 N 
ATOM      2  C   UNL     1     -51.164  38.185  28.197  1.00  0.00     0.046 C 
ATOM      3  C   UNL     1     -51.099  39.709  28.466  1.00  0.00     0.092 C 
ATOM      4  C   UNL     1     -51.941  40.560  27.513  1.00  0.00     0.045 C 
ATOM      5  N   UNL     1     -51.890  41.992  27.886  1.00  0.00    -0.360 N 
ATOM      6  C   UNL     1     -52.425  42.227  29.249  1.00  0.00     0.097 C 
ATOM      7  C   UNL     1     -51.835  41.290  30.315  1.00  0.00     0.240 C 
ATOM      8  O   UNL     1     -51.851  41.566  31.515  1.00  0.00    -0.273 OA
ATOM      9  N   UNL     1     -51.343  40.076  29.899  1.00  0.00    -0.344 N 
ATOM     10  C   UNL     1     -49.597  39.553  28.117  1.00  0.00     0.046 C 
ATOM     11  H   UNL     1     -51.734  37.591  28.916  1.00  0.00     0.052 H 
ATOM     12  H   UNL     1     -51.427  37.895  27.174  1.00  0.00     0.052 H 
ATOM     13  H   UNL     1     -51.656  40.390  26.467  1.00  0.00     0.052 H 
ATOM     14  H   UNL     1     -52.991  40.239  27.576  1.00  0.00     0.052 H 
ATOM     15  H   UNL     1     -52.290  43.270  29.557  1.00  0.00     0.060 H 
ATOM     16  H   UNL     1     -53.505  42.042  29.229  1.00  0.00     0.060 H 
ATOM     17  H   UNL     1     -50.907  39.533  30.636  1.00  0.00     0.164 HD
ATOM     18  H   UNL     1     -48.886  40.063  28.772  1.00  0.00     0.052 H 
ATOM     19  H   UNL     1     -49.332  39.720  27.066  1.00  0.00     0.052 H 
ENDROOT
BRANCH   1  20
ATOM     20  C   UNL     1     -48.846  37.151  28.036  1.00  0.00     0.134 A 
ATOM     21  C   UNL     1     -46.656  36.247  27.933  1.00  0.00     0.131 A 
ATOM     22  C   UNL     1     -47.504  37.256  28.354  1.00  0.00     0.023 A 
ATOM     23  N   UNL     1     -47.109  35.209  27.218  1.00  0.00    -0.219 NA
ATOM     24  H   UNL     1     -47.120  38.110  28.894  1.00  0.00     0.070 H 
ATOM     25  C   UNL     1     -48.420  35.197  26.948  1.00  0.00     0.120 A 
ATOM     26  N   UNL     1     -49.317  36.113  27.326  1.00  0.00    -0.219 NA
ATOM     27  H   UNL     1     -48.791  34.360  26.366  1.00  0.00     0.106 H 
BRANCH  21  28
ATOM     28  N   UNL     1     -45.286  36.366  28.234  1.00  0.00    -0.373 N 
ATOM     29  H   UNL     1     -44.750  36.354  27.370  1.00  0.00     0.161 HD
BRANCH  28  30
ATOM     30  C   UNL     1     -44.948  37.512  29.063  1.00  0.00     0.005 C 
ATOM     31  H   UNL     1     -45.489  37.492  30.016  1.00  0.00     0.045 H 
ATOM     32  H   UNL     1     -43.879  37.480  29.294  1.00  0.00     0.045 H 
ATOM     33  H   UNL     1     -45.147  38.457  28.545  1.00  0.00     0.045 H 
ENDBRANCH  28  30
ENDBRANCH  21  28
ENDBRANCH   1  20
BRANCH   5  34
ATOM     34  C   UNL     1     -50.702  42.636  27.502  1.00  0.00     0.037 A 
ATOM     35  C   UNL     1     -50.347  42.671  26.143  1.00  0.00    -0.038 A 
ATOM     36  C   UNL     1     -49.825  43.255  28.403  1.00  0.00    -0.038 A 
ATOM     37  C   UNL     1     -49.149  43.247  25.709  1.00  0.00    -0.056 A 
ATOM     38  H   UNL     1     -51.014  42.249  25.397  1.00  0.00     0.064 H 
ATOM     39  C   UNL     1     -48.622  43.834  27.976  1.00  0.00    -0.056 A 
ATOM     40  H   UNL     1     -50.029  43.279  29.470  1.00  0.00     0.064 H 
ATOM     41  C   UNL     1     -48.265  43.822  26.625  1.00  0.00    -0.034 A 
ATOM     42  H   UNL     1     -48.903  43.236  24.649  1.00  0.00     0.063 H 
ATOM     43  H   UNL     1     -47.962  44.281  28.715  1.00  0.00     0.063 H 
BRANCH  41  44
ATOM     44  C   UNL     1     -46.955  44.423  26.162  1.00  0.00     0.023 C 
ATOM     45  H   UNL     1     -46.889  45.477  26.463  1.00  0.00     0.048 H 
ATOM     46  H   UNL     1     -46.987  44.418  25.064  1.00  0.00     0.048 H 
BRANCH  44  47
ATOM     47  N   UNL     1     -45.773  43.677  26.632  1.00  0.00    -0.299 NA
ATOM     48  C   UNL     1     -45.334  42.729  25.598  1.00  0.00    -0.001 C 
ATOM     49  C   UNL     1     -44.678  44.586  27.010  1.00  0.00    -0.001 C 
ATOM     50  C   UNL     1     -44.149  41.888  26.080  1.00  0.00    -0.035 C 
ATOM     51  H   UNL     1     -46.155  42.040  25.360  1.00  0.00     0.043 H 
ATOM     52  H   UNL     1     -45.078  43.250  24.668  1.00  0.00     0.043 H 
ATOM     53  C   UNL     1     -43.468  43.809  27.539  1.00  0.00    -0.035 C 
ATOM     54  H   UNL     1     -44.382  45.218  26.163  1.00  0.00     0.043 H 
ATOM     55  H   UNL     1     -45.001  45.261  27.810  1.00  0.00     0.043 H 
ATOM     56  C   UNL     1     -42.954  42.743  26.549  1.00  0.00    -0.033 C 
ATOM     57  H   UNL     1     -44.491  41.250  26.907  1.00  0.00     0.029 H 
ATOM     58  H   UNL     1     -43.838  41.207  25.277  1.00  0.00     0.029 H 
ATOM     59  H   UNL     1     -42.666  44.514  27.789  1.00  0.00     0.029 H 
ATOM     60  H   UNL     1     -43.757  43.324  28.483  1.00  0.00     0.029 H 
BRANCH  56  61
ATOM     61  C   UNL     1     -41.929  41.841  27.260  1.00  0.00    -0.060 C 
ATOM     62  H   UNL     1     -42.086  41.842  28.344  1.00  0.00     0.024 H 
ATOM     63  H   UNL     1     -42.003  40.803  26.914  1.00  0.00     0.024 H 
ATOM     64  H   UNL     1     -40.905  42.182  27.069  1.00  0.00     0.024 H 
ENDBRANCH  56  61
BRANCH  56  65
ATOM     65  C   UNL     1     -42.254  43.408  25.350  1.00  0.00    -0.060 C 
ATOM     66  H   UNL     1     -42.489  44.477  25.303  1.00  0.00     0.024 H 
ATOM     67  H   UNL     1     -42.550  42.966  24.394  1.00  0.00     0.024 H 
ATOM     68  H   UNL     1     -41.164  43.312  25.431  1.00  0.00     0.024 H 
ENDBRANCH  56  65
ENDBRANCH  44  47
ENDBRANCH  41  44
ENDBRANCH   5  34
TORSDOF 8
ENDMDL
