MODEL 1
REMARK VINA RESULT:      -9.9      0.000      0.000
REMARK SMILES CNc1ccc2ccc(OCc3cncc(-n4cc(Cl)c5c(N)ncnc54)n3)cc2n1
REMARK SMILES IDX 11 1 10 4 9 5 3 6 4 7 31 8 5 9 30 11 6 12 29 14 7 15 8 17
REMARK SMILES IDX 2 20 1 22 12 26 13 27 28 28 14 29 16 31 15 32 17 34 18 35
REMARK SMILES IDX 27 36 19 37 21 39 26 40 20 41 22 42 25 43 24 44 23 46
REMARK H PARENT 11 2 11 3 4 10 5 13 29 16 7 18 8 19 2 21 1 23 1 24 1 25 13 30
REMARK H PARENT 15 33 18 38 25 45 23 47 23 48
REMARK Flexibility Score: inf
ROOT
ATOM      1  C   UNL     1     -46.773  36.648  26.690  1.00  0.00     0.132 C 
ATOM      2  H   UNL     1     -47.623  36.947  26.064  1.00  0.00     0.078 H 
ATOM      3  H   UNL     1     -45.831  36.936  26.207  1.00  0.00     0.078 H 
ENDROOT
BRANCH   1   4
ATOM      4  O   UNL     1     -46.881  37.261  27.978  1.00  0.00    -0.487 OA
BRANCH   4   5
ATOM      5  C   UNL     1     -45.827  38.029  28.391  1.00  0.00     0.122 A 
ATOM      6  C   UNL     1     -42.692  41.590  28.009  1.00  0.00     0.126 A 
ATOM      7  C   UNL     1     -42.081  41.244  29.209  1.00  0.00    -0.019 A 
ATOM      8  N   UNL     1     -43.735  40.889  27.519  1.00  0.00    -0.231 NA
ATOM      9  C   UNL     1     -42.567  40.163  29.937  1.00  0.00    -0.049 A 
ATOM     10  H   UNL     1     -41.225  41.802  29.570  1.00  0.00     0.066 H 
ATOM     11  C   UNL     1     -44.212  39.841  28.217  1.00  0.00     0.076 A 
ATOM     12  C   UNL     1     -43.655  39.438  29.445  1.00  0.00     0.001 A 
ATOM     13  H   UNL     1     -42.090  39.892  30.874  1.00  0.00     0.063 H 
ATOM     14  C   UNL     1     -45.292  39.127  27.712  1.00  0.00     0.007 A 
ATOM     15  C   UNL     1     -44.185  38.339  30.137  1.00  0.00    -0.049 A 
ATOM     16  H   UNL     1     -45.698  39.464  26.764  1.00  0.00     0.069 H 
ATOM     17  C   UNL     1     -45.269  37.641  29.607  1.00  0.00    -0.019 A 
ATOM     18  H   UNL     1     -43.761  38.022  31.086  1.00  0.00     0.063 H 
ATOM     19  H   UNL     1     -45.679  36.790  30.146  1.00  0.00     0.066 H 
BRANCH   6  20
ATOM     20  N   UNL     1     -42.156  42.672  27.287  1.00  0.00    -0.373 N 
ATOM     21  H   UNL     1     -41.802  43.362  27.943  1.00  0.00     0.161 HD
BRANCH  20  22
ATOM     22  C   UNL     1     -43.075  43.263  26.327  1.00  0.00     0.005 C 
ATOM     23  H   UNL     1     -43.678  42.499  25.824  1.00  0.00     0.045 H 
ATOM     24  H   UNL     1     -42.497  43.781  25.555  1.00  0.00     0.045 H 
ATOM     25  H   UNL     1     -43.732  44.002  26.799  1.00  0.00     0.045 H 
ENDBRANCH  20  22
ENDBRANCH   6  20
ENDBRANCH   4   5
ENDBRANCH   1   4
BRANCH   1  26
ATOM     26  C   UNL     1     -46.780  35.147  26.835  1.00  0.00     0.099 A 
ATOM     27  C   UNL     1     -46.161  34.525  27.909  1.00  0.00     0.052 A 
ATOM     28  N   UNL     1     -47.365  34.417  25.849  1.00  0.00    -0.228 NA
ATOM     29  N   UNL     1     -46.117  33.181  28.048  1.00  0.00    -0.259 NA
ATOM     30  H   UNL     1     -45.677  35.095  28.697  1.00  0.00     0.086 H 
ATOM     31  C   UNL     1     -47.342  33.065  25.967  1.00  0.00     0.157 A 
ATOM     32  C   UNL     1     -46.721  32.471  27.061  1.00  0.00     0.070 A 
ATOM     33  H   UNL     1     -46.668  31.401  27.215  1.00  0.00     0.088 H 
BRANCH  31  34
ATOM     34  N   UNL     1     -47.960  32.265  24.952  1.00  0.00    -0.282 N 
ATOM     35  C   UNL     1     -49.319  32.044  24.797  1.00  0.00     0.032 A 
ATOM     36  C   UNL     1     -47.304  31.564  23.940  1.00  0.00     0.152 A 
ATOM     37  C   UNL     1     -49.517  31.228  23.709  1.00  0.00     0.072 A 
ATOM     38  H   UNL     1     -50.054  32.475  25.460  1.00  0.00     0.084 H 
ATOM     39  C   UNL     1     -48.255  30.918  23.154  1.00  0.00     0.080 A 
ATOM     40  N   UNL     1     -45.972  31.505  23.736  1.00  0.00    -0.218 NA
ATOM     41  Cl  UNL     1     -51.026  30.684  23.143  1.00  0.00    -0.082 Cl
ATOM     42  C   UNL     1     -47.781  30.163  22.071  1.00  0.00     0.137 A 
ATOM     43  C   UNL     1     -45.637  30.755  22.682  1.00  0.00     0.120 A 
ATOM     44  N   UNL     1     -46.456  30.086  21.854  1.00  0.00    -0.219 NA
ATOM     45  H   UNL     1     -44.575  30.677  22.469  1.00  0.00     0.106 H 
BRANCH  42  46
ATOM     46  N   UNL     1     -48.596  29.466  21.193  1.00  0.00    -0.383 N 
ATOM     47  H   UNL     1     -48.432  28.468  21.239  1.00  0.00     0.158 HD
ATOM     48  H   UNL     1     -49.557  29.777  21.136  1.00  0.00     0.158 HD
ENDBRANCH  42  46
ENDBRANCH  31  34
ENDBRANCH   1  26
TORSDOF 7
ENDMDL
MODEL 2
REMARK VINA RESULT:      -9.8      2.934     10.311
REMARK SMILES CNc1ccc2ccc(OCc3cncc(-n4cc(Cl)c5c(N)ncnc54)n3)cc2n1
REMARK SMILES IDX 11 1 10 4 9 5 3 6 4 7 31 8 5 9 30 11 6 12 29 14 7 15 8 17
REMARK SMILES IDX 2 20 1 22 12 26 13 27 28 28 14 29 16 31 15 32 17 34 18 35
REMARK SMILES IDX 27 36 19 37 21 39 26 40 20 41 22 42 25 43 24 44 23 46
REMARK H PARENT 11 2 11 3 4 10 5 13 29 16 7 18 8 19 2 21 1 23 1 24 1 25 13 30
REMARK H PARENT 15 33 18 38 25 45 23 47 23 48
REMARK Flexibility Score: inf
ROOT
ATOM      1  C   UNL     1     -47.392  35.429  27.704  1.00  0.00     0.132 C 
ATOM      2  H   UNL     1     -48.344  35.907  27.443  1.00  0.00     0.078 H 
ATOM      3  H   UNL     1     -47.574  34.547  28.330  1.00  0.00     0.078 H 
ENDROOT
BRANCH   1   4
ATOM      4  O   UNL     1     -46.692  35.058  26.513  1.00  0.00    -0.487 OA
BRANCH   4   5
ATOM      5  C   UNL     1     -47.094  33.909  25.888  1.00  0.00     0.122 A 
ATOM      6  C   UNL     1     -46.596  30.246  22.890  1.00  0.00     0.126 A 
ATOM      7  C   UNL     1     -47.856  29.751  23.211  1.00  0.00    -0.019 A 
ATOM      8  N   UNL     1     -46.117  31.375  23.452  1.00  0.00    -0.231 NA
ATOM      9  C   UNL     1     -48.634  30.420  24.149  1.00  0.00    -0.049 A 
ATOM     10  H   UNL     1     -48.235  28.858  22.726  1.00  0.00     0.066 H 
ATOM     11  C   UNL     1     -46.864  32.029  24.360  1.00  0.00     0.076 A 
ATOM     12  C   UNL     1     -48.142  31.583  24.746  1.00  0.00     0.001 A 
ATOM     13  H   UNL     1     -49.618  30.035  24.400  1.00  0.00     0.063 H 
ATOM     14  C   UNL     1     -46.362  33.187  24.942  1.00  0.00     0.007 A 
ATOM     15  C   UNL     1     -48.885  32.298  25.697  1.00  0.00    -0.049 A 
ATOM     16  H   UNL     1     -45.374  33.503  24.624  1.00  0.00     0.069 H 
ATOM     17  C   UNL     1     -48.357  33.457  26.264  1.00  0.00    -0.019 A 
ATOM     18  H   UNL     1     -49.872  31.961  26.000  1.00  0.00     0.063 H 
ATOM     19  H   UNL     1     -48.935  34.009  27.002  1.00  0.00     0.066 H 
BRANCH   6  20
ATOM     20  N   UNL     1     -45.848  29.557  21.918  1.00  0.00    -0.373 N 
ATOM     21  H   UNL     1     -46.464  28.922  21.419  1.00  0.00     0.161 HD
BRANCH  20  22
ATOM     22  C   UNL     1     -44.675  28.875  22.440  1.00  0.00     0.005 C 
ATOM     23  H   UNL     1     -44.942  27.930  22.927  1.00  0.00     0.045 H 
ATOM     24  H   UNL     1     -44.204  29.509  23.198  1.00  0.00     0.045 H 
ATOM     25  H   UNL     1     -43.932  28.691  21.656  1.00  0.00     0.045 H 
ENDBRANCH  20  22
ENDBRANCH   6  20
ENDBRANCH   4   5
ENDBRANCH   1   4
BRANCH   1  26
ATOM     26  C   UNL     1     -46.561  36.401  28.504  1.00  0.00     0.099 A 
ATOM     27  C   UNL     1     -46.386  36.243  29.870  1.00  0.00     0.052 A 
ATOM     28  N   UNL     1     -46.035  37.471  27.851  1.00  0.00    -0.228 NA
ATOM     29  N   UNL     1     -45.679  37.118  30.621  1.00  0.00    -0.259 NA
ATOM     30  H   UNL     1     -46.813  35.402  30.407  1.00  0.00     0.086 H 
ATOM     31  C   UNL     1     -45.314  38.361  28.580  1.00  0.00     0.157 A 
ATOM     32  C   UNL     1     -45.148  38.171  29.948  1.00  0.00     0.070 A 
ATOM     33  H   UNL     1     -44.586  38.841  30.584  1.00  0.00     0.088 H 
BRANCH  31  34
ATOM     34  N   UNL     1     -44.734  39.494  27.922  1.00  0.00    -0.282 N 
ATOM     35  C   UNL     1     -45.120  40.018  26.699  1.00  0.00     0.032 A 
ATOM     36  C   UNL     1     -43.676  40.272  28.395  1.00  0.00     0.152 A 
ATOM     37  C   UNL     1     -44.330  41.104  26.409  1.00  0.00     0.072 A 
ATOM     38  H   UNL     1     -45.924  39.593  26.116  1.00  0.00     0.084 H 
ATOM     39  C   UNL     1     -43.415  41.280  27.471  1.00  0.00     0.080 A 
ATOM     40  N   UNL     1     -43.003  40.095  29.549  1.00  0.00    -0.218 NA
ATOM     41  Cl  UNL     1     -44.438  42.059  25.005  1.00  0.00    -0.082 Cl
ATOM     42  C   UNL     1     -42.379  42.176  27.780  1.00  0.00     0.137 A 
ATOM     43  C   UNL     1     -42.039  41.001  29.737  1.00  0.00     0.120 A 
ATOM     44  N   UNL     1     -41.692  42.013  28.924  1.00  0.00    -0.219 NA
ATOM     45  H   UNL     1     -41.466  40.909  30.654  1.00  0.00     0.106 H 
BRANCH  42  46
ATOM     46  N   UNL     1     -42.000  43.233  26.970  1.00  0.00    -0.383 N 
ATOM     47  H   UNL     1     -41.062  43.111  26.607  1.00  0.00     0.158 HD
ATOM     48  H   UNL     1     -42.703  43.581  26.332  1.00  0.00     0.158 HD
ENDBRANCH  42  46
ENDBRANCH  31  34
ENDBRANCH   1  26
TORSDOF 7
ENDMDL
MODEL 3
REMARK VINA RESULT:      -9.6      3.355     10.235
REMARK SMILES CNc1ccc2ccc(OCc3cncc(-n4cc(Cl)c5c(N)ncnc54)n3)cc2n1
REMARK SMILES IDX 11 1 10 4 9 5 3 6 4 7 31 8 5 9 30 11 6 12 29 14 7 15 8 17
REMARK SMILES IDX 2 20 1 22 12 26 13 27 28 28 14 29 16 31 15 32 17 34 18 35
REMARK SMILES IDX 27 36 19 37 21 39 26 40 20 41 22 42 25 43 24 44 23 46
REMARK H PARENT 11 2 11 3 4 10 5 13 29 16 7 18 8 19 2 21 1 23 1 24 1 25 13 30
REMARK H PARENT 15 33 18 38 25 45 23 47 23 48
REMARK Flexibility Score: inf
ROOT
ATOM      1  C   UNL     1     -46.626  35.342  26.792  1.00  0.00     0.132 C 
ATOM      2  H   UNL     1     -45.800  35.364  26.070  1.00  0.00     0.078 H 
ATOM      3  H   UNL     1     -47.511  35.828  26.366  1.00  0.00     0.078 H 
ENDROOT
BRANCH   1   4
ATOM      4  O   UNL     1     -46.923  33.988  27.146  1.00  0.00    -0.487 OA
BRANCH   4   5
ATOM      5  C   UNL     1     -47.262  33.139  26.127  1.00  0.00     0.122 A 
ATOM      6  C   UNL     1     -46.615  30.981  21.935  1.00  0.00     0.126 A 
ATOM      7  C   UNL     1     -47.817  30.291  22.051  1.00  0.00    -0.019 A 
ATOM      8  N   UNL     1     -46.200  31.842  22.887  1.00  0.00    -0.231 NA
ATOM      9  C   UNL     1     -48.603  30.473  23.184  1.00  0.00    -0.049 A 
ATOM     10  H   UNL     1     -48.148  29.626  21.261  1.00  0.00     0.066 H 
ATOM     11  C   UNL     1     -46.955  32.025  23.986  1.00  0.00     0.076 A 
ATOM     12  C   UNL     1     -48.177  31.353  24.181  1.00  0.00     0.001 A 
ATOM     13  H   UNL     1     -49.542  29.935  23.276  1.00  0.00     0.063 H 
ATOM     14  C   UNL     1     -46.519  32.908  24.967  1.00  0.00     0.007 A 
ATOM     15  C   UNL     1     -48.930  31.576  25.343  1.00  0.00    -0.049 A 
ATOM     16  H   UNL     1     -45.573  33.408  24.786  1.00  0.00     0.069 H 
ATOM     17  C   UNL     1     -48.468  32.467  26.311  1.00  0.00    -0.019 A 
ATOM     18  H   UNL     1     -49.873  31.062  25.502  1.00  0.00     0.063 H 
ATOM     19  H   UNL     1     -49.053  32.637  27.212  1.00  0.00     0.066 H 
BRANCH   6  20
ATOM     20  N   UNL     1     -45.860  30.791  20.763  1.00  0.00    -0.373 N 
ATOM     21  H   UNL     1     -44.880  30.705  21.015  1.00  0.00     0.161 HD
BRANCH  20  22
ATOM     22  C   UNL     1     -46.069  31.810  19.747  1.00  0.00     0.005 C 
ATOM     23  H   UNL     1     -46.927  32.448  19.987  1.00  0.00     0.045 H 
ATOM     24  H   UNL     1     -46.285  31.320  18.792  1.00  0.00     0.045 H 
ATOM     25  H   UNL     1     -45.176  32.429  19.606  1.00  0.00     0.045 H 
ENDBRANCH  20  22
ENDBRANCH   6  20
ENDBRANCH   4   5
ENDBRANCH   1   4
BRANCH   1  26
ATOM     26  C   UNL     1     -46.218  36.114  28.021  1.00  0.00     0.099 A 
ATOM     27  C   UNL     1     -46.646  35.734  29.285  1.00  0.00     0.052 A 
ATOM     28  N   UNL     1     -45.462  37.230  27.848  1.00  0.00    -0.228 NA
ATOM     29  N   UNL     1     -46.330  36.427  30.401  1.00  0.00    -0.259 NA
ATOM     30  H   UNL     1     -47.263  34.853  29.437  1.00  0.00     0.086 H 
ATOM     31  C   UNL     1     -45.123  37.940  28.953  1.00  0.00     0.157 A 
ATOM     32  C   UNL     1     -45.561  37.528  30.208  1.00  0.00     0.070 A 
ATOM     33  H   UNL     1     -45.326  38.049  31.128  1.00  0.00     0.088 H 
BRANCH  31  34
ATOM     34  N   UNL     1     -44.317  39.115  28.808  1.00  0.00    -0.282 N 
ATOM     35  C   UNL     1     -43.295  39.518  29.653  1.00  0.00     0.032 A 
ATOM     36  C   UNL     1     -44.418  40.066  27.791  1.00  0.00     0.152 A 
ATOM     37  C   UNL     1     -42.759  40.690  29.178  1.00  0.00     0.072 A 
ATOM     38  H   UNL     1     -43.013  38.953  30.529  1.00  0.00     0.084 H 
ATOM     39  C   UNL     1     -43.454  41.050  28.001  1.00  0.00     0.080 A 
ATOM     40  N   UNL     1     -45.295  40.058  26.767  1.00  0.00    -0.218 NA
ATOM     41  Cl  UNL     1     -41.483  41.557  29.897  1.00  0.00    -0.082 Cl
ATOM     42  C   UNL     1     -43.396  42.095  27.068  1.00  0.00     0.137 A 
ATOM     43  C   UNL     1     -45.150  41.102  25.946  1.00  0.00     0.120 A 
ATOM     44  N   UNL     1     -44.266  42.108  26.042  1.00  0.00    -0.219 NA
ATOM     45  H   UNL     1     -45.829  41.142  25.100  1.00  0.00     0.106 H 
BRANCH  42  46
ATOM     46  N   UNL     1     -42.494  43.145  27.131  1.00  0.00    -0.383 N 
ATOM     47  H   UNL     1     -42.880  43.944  27.619  1.00  0.00     0.158 HD
ATOM     48  H   UNL     1     -41.535  42.896  27.335  1.00  0.00     0.158 HD
ENDBRANCH  42  46
ENDBRANCH  31  34
ENDBRANCH   1  26
TORSDOF 7
ENDMDL
MODEL 4
REMARK VINA RESULT:      -9.4      3.317     10.625
REMARK SMILES CNc1ccc2ccc(OCc3cncc(-n4cc(Cl)c5c(N)ncnc54)n3)cc2n1
REMARK SMILES IDX 11 1 10 4 9 5 3 6 4 7 31 8 5 9 30 11 6 12 29 14 7 15 8 17
REMARK SMILES IDX 2 20 1 22 12 26 13 27 28 28 14 29 16 31 15 32 17 34 18 35
REMARK SMILES IDX 27 36 19 37 21 39 26 40 20 41 22 42 25 43 24 44 23 46
REMARK H PARENT 11 2 11 3 4 10 5 13 29 16 7 18 8 19 2 21 1 23 1 24 1 25 13 30
REMARK H PARENT 15 33 18 38 25 45 23 47 23 48
REMARK Flexibility Score: inf
ROOT
ATOM      1  C   UNL     1     -46.898  34.596  27.415  1.00  0.00     0.132 C 
ATOM      2  H   UNL     1     -46.622  34.171  28.388  1.00  0.00     0.078 H 
ATOM      3  H   UNL     1     -46.045  34.546  26.728  1.00  0.00     0.078 H 
ENDROOT
BRANCH   1   4
ATOM      4  O   UNL     1     -48.015  33.884  26.875  1.00  0.00    -0.487 OA
BRANCH   4   5
ATOM      5  C   UNL     1     -47.740  32.869  25.999  1.00  0.00     0.122 A 
ATOM      6  C   UNL     1     -48.348  28.547  24.100  1.00  0.00     0.126 A 
ATOM      7  C   UNL     1     -47.318  28.752  23.187  1.00  0.00    -0.019 A 
ATOM      8  N   UNL     1     -48.687  29.489  25.004  1.00  0.00    -0.231 NA
ATOM      9  C   UNL     1     -46.634  29.963  23.189  1.00  0.00    -0.049 A 
ATOM     10  H   UNL     1     -47.041  27.971  22.488  1.00  0.00     0.066 H 
ATOM     11  C   UNL     1     -48.030  30.663  25.012  1.00  0.00     0.076 A 
ATOM     12  C   UNL     1     -46.986  30.949  24.112  1.00  0.00     0.001 A 
ATOM     13  H   UNL     1     -45.830  30.123  22.477  1.00  0.00     0.063 H 
ATOM     14  C   UNL     1     -48.389  31.633  25.942  1.00  0.00     0.007 A 
ATOM     15  C   UNL     1     -46.329  32.188  24.160  1.00  0.00    -0.049 A 
ATOM     16  H   UNL     1     -49.198  31.382  26.620  1.00  0.00     0.069 H 
ATOM     17  C   UNL     1     -46.710  33.142  25.102  1.00  0.00    -0.019 A 
ATOM     18  H   UNL     1     -45.523  32.416  23.468  1.00  0.00     0.063 H 
ATOM     19  H   UNL     1     -46.200  34.102  25.135  1.00  0.00     0.066 H 
BRANCH   6  20
ATOM     20  N   UNL     1     -48.999  27.301  24.086  1.00  0.00    -0.373 N 
ATOM     21  H   UNL     1     -49.440  27.170  23.181  1.00  0.00     0.161 HD
BRANCH  20  22
ATOM     22  C   UNL     1     -49.939  27.107  25.179  1.00  0.00     0.005 C 
ATOM     23  H   UNL     1     -50.972  27.280  24.857  1.00  0.00     0.045 H 
ATOM     24  H   UNL     1     -49.719  27.832  25.969  1.00  0.00     0.045 H 
ATOM     25  H   UNL     1     -49.850  26.106  25.615  1.00  0.00     0.045 H 
ENDBRANCH  20  22
ENDBRANCH   6  20
ENDBRANCH   4   5
ENDBRANCH   1   4
BRANCH   1  26
ATOM     26  C   UNL     1     -47.259  36.048  27.602  1.00  0.00     0.099 A 
ATOM     27  C   UNL     1     -48.568  36.439  27.841  1.00  0.00     0.052 A 
ATOM     28  N   UNL     1     -46.268  36.970  27.473  1.00  0.00    -0.228 NA
ATOM     29  N   UNL     1     -48.929  37.735  27.975  1.00  0.00    -0.259 NA
ATOM     30  H   UNL     1     -49.372  35.716  27.932  1.00  0.00     0.086 H 
ATOM     31  C   UNL     1     -46.602  38.278  27.611  1.00  0.00     0.157 A 
ATOM     32  C   UNL     1     -47.922  38.638  27.860  1.00  0.00     0.070 A 
ATOM     33  H   UNL     1     -48.254  39.661  27.980  1.00  0.00     0.088 H 
BRANCH  31  34
ATOM     34  N   UNL     1     -45.580  39.275  27.493  1.00  0.00    -0.282 N 
ATOM     35  C   UNL     1     -45.435  40.180  26.454  1.00  0.00     0.032 A 
ATOM     36  C   UNL     1     -44.548  39.512  28.401  1.00  0.00     0.152 A 
ATOM     37  C   UNL     1     -44.341  40.974  26.703  1.00  0.00     0.072 A 
ATOM     38  H   UNL     1     -46.109  40.206  25.611  1.00  0.00     0.084 H 
ATOM     39  C   UNL     1     -43.771  40.568  27.931  1.00  0.00     0.080 A 
ATOM     40  N   UNL     1     -44.318  38.843  29.549  1.00  0.00    -0.218 NA
ATOM     41  Cl  UNL     1     -43.775  42.222  25.695  1.00  0.00    -0.082 Cl
ATOM     42  C   UNL     1     -42.680  40.959  28.722  1.00  0.00     0.137 A 
ATOM     43  C   UNL     1     -43.254  39.298  30.217  1.00  0.00     0.120 A 
ATOM     44  N   UNL     1     -42.431  40.301  29.868  1.00  0.00    -0.219 NA
ATOM     45  H   UNL     1     -43.026  38.798  31.153  1.00  0.00     0.106 H 
BRANCH  42  46
ATOM     46  N   UNL     1     -41.816  41.992  28.397  1.00  0.00    -0.383 N 
ATOM     47  H   UNL     1     -42.262  42.685  27.807  1.00  0.00     0.158 HD
ATOM     48  H   UNL     1     -41.225  42.331  29.145  1.00  0.00     0.158 HD
ENDBRANCH  42  46
ENDBRANCH  31  34
ENDBRANCH   1  26
TORSDOF 7
ENDMDL
MODEL 5
REMARK VINA RESULT:      -9.3      3.398     10.444
REMARK SMILES CNc1ccc2ccc(OCc3cncc(-n4cc(Cl)c5c(N)ncnc54)n3)cc2n1
REMARK SMILES IDX 11 1 10 4 9 5 3 6 4 7 31 8 5 9 30 11 6 12 29 14 7 15 8 17
REMARK SMILES IDX 2 20 1 22 12 26 13 27 28 28 14 29 16 31 15 32 17 34 18 35
REMARK SMILES IDX 27 36 19 37 21 39 26 40 20 41 22 42 25 43 24 44 23 46
REMARK H PARENT 11 2 11 3 4 10 5 13 29 16 7 18 8 19 2 21 1 23 1 24 1 25 13 30
REMARK H PARENT 15 33 18 38 25 45 23 47 23 48
REMARK Flexibility Score: inf
ROOT
ATOM      1  C   UNL     1     -47.196  36.322  27.854  1.00  0.00     0.132 C 
ATOM      2  H   UNL     1     -48.225  35.957  27.966  1.00  0.00     0.078 H 
ATOM      3  H   UNL     1     -46.593  36.011  28.715  1.00  0.00     0.078 H 
ENDROOT
BRANCH   1   4
ATOM      4  O   UNL     1     -46.632  35.815  26.641  1.00  0.00    -0.487 OA
BRANCH   4   5
ATOM      5  C   UNL     1     -47.116  34.621  26.181  1.00  0.00     0.122 A 
ATOM      6  C   UNL     1     -46.850  30.498  23.818  1.00  0.00     0.126 A 
ATOM      7  C   UNL     1     -48.163  30.173  24.143  1.00  0.00    -0.019 A 
ATOM      8  N   UNL     1     -46.289  31.655  24.224  1.00  0.00    -0.231 NA
ATOM      9  C   UNL     1     -48.911  31.048  24.923  1.00  0.00    -0.049 A 
ATOM     10  H   UNL     1     -48.606  29.251  23.783  1.00  0.00     0.066 H 
ATOM     11  C   UNL     1     -47.006  32.509  24.977  1.00  0.00     0.076 A 
ATOM     12  C   UNL     1     -48.335  32.243  25.358  1.00  0.00     0.001 A 
ATOM     13  H   UNL     1     -49.936  30.795  25.177  1.00  0.00     0.063 H 
ATOM     14  C   UNL     1     -46.419  33.696  25.399  1.00  0.00     0.007 A 
ATOM     15  C   UNL     1     -49.043  33.164  26.145  1.00  0.00    -0.049 A 
ATOM     16  H   UNL     1     -45.393  33.869  25.090  1.00  0.00     0.069 H 
ATOM     17  C   UNL     1     -48.430  34.347  26.553  1.00  0.00    -0.019 A 
ATOM     18  H   UNL     1     -50.069  32.966  26.443  1.00  0.00     0.063 H 
ATOM     19  H   UNL     1     -48.981  35.058  27.165  1.00  0.00     0.066 H 
BRANCH   6  20
ATOM     20  N   UNL     1     -46.133  29.601  23.006  1.00  0.00    -0.373 N 
ATOM     21  H   UNL     1     -46.398  29.751  22.037  1.00  0.00     0.161 HD
BRANCH  20  22
ATOM     22  C   UNL     1     -46.269  28.206  23.394  1.00  0.00     0.005 C 
ATOM     23  H   UNL     1     -46.895  27.650  22.687  1.00  0.00     0.045 H 
ATOM     24  H   UNL     1     -46.759  28.155  24.372  1.00  0.00     0.045 H 
ATOM     25  H   UNL     1     -45.293  27.717  23.489  1.00  0.00     0.045 H 
ENDBRANCH  20  22
ENDBRANCH   6  20
ENDBRANCH   4   5
ENDBRANCH   1   4
BRANCH   1  26
ATOM     26  C   UNL     1     -47.214  37.829  27.820  1.00  0.00     0.099 A 
ATOM     27  C   UNL     1     -48.406  38.536  27.879  1.00  0.00     0.052 A 
ATOM     28  N   UNL     1     -46.027  38.474  27.673  1.00  0.00    -0.228 NA
ATOM     29  N   UNL     1     -48.458  39.885  27.813  1.00  0.00    -0.259 NA
ATOM     30  H   UNL     1     -49.363  38.033  27.982  1.00  0.00     0.086 H 
ATOM     31  C   UNL     1     -46.050  39.830  27.612  1.00  0.00     0.157 A 
ATOM     32  C   UNL     1     -47.261  40.511  27.683  1.00  0.00     0.070 A 
ATOM     33  H   UNL     1     -47.348  41.589  27.641  1.00  0.00     0.088 H 
BRANCH  31  34
ATOM     34  N   UNL     1     -44.816  40.543  27.469  1.00  0.00    -0.282 N 
ATOM     35  C   UNL     1     -43.702  40.425  28.285  1.00  0.00     0.032 A 
ATOM     36  C   UNL     1     -44.515  41.485  26.485  1.00  0.00     0.152 A 
ATOM     37  C   UNL     1     -42.719  41.267  27.823  1.00  0.00     0.072 A 
ATOM     38  H   UNL     1     -43.674  39.757  29.133  1.00  0.00     0.084 H 
ATOM     39  C   UNL     1     -43.214  41.942  26.685  1.00  0.00     0.080 A 
ATOM     40  N   UNL     1     -45.331  41.902  25.496  1.00  0.00    -0.218 NA
ATOM     41  Cl  UNL     1     -41.178  41.462  28.517  1.00  0.00    -0.082 Cl
ATOM     42  C   UNL     1     -42.727  42.897  25.780  1.00  0.00     0.137 A 
ATOM     43  C   UNL     1     -44.764  42.813  24.699  1.00  0.00     0.120 A 
ATOM     44  N   UNL     1     -43.528  43.330  24.790  1.00  0.00    -0.219 NA
ATOM     45  H   UNL     1     -45.376  43.181  23.881  1.00  0.00     0.106 H 
BRANCH  42  46
ATOM     46  N   UNL     1     -41.457  43.446  25.839  1.00  0.00    -0.383 N 
ATOM     47  H   UNL     1     -40.755  42.748  26.051  1.00  0.00     0.158 HD
ATOM     48  H   UNL     1     -41.233  44.129  25.127  1.00  0.00     0.158 HD
ENDBRANCH  42  46
ENDBRANCH  31  34
ENDBRANCH   1  26
TORSDOF 7
ENDMDL
MODEL 6
REMARK VINA RESULT:      -9.2      3.488     10.843
REMARK SMILES CNc1ccc2ccc(OCc3cncc(-n4cc(Cl)c5c(N)ncnc54)n3)cc2n1
REMARK SMILES IDX 11 1 10 4 9 5 3 6 4 7 31 8 5 9 30 11 6 12 29 14 7 15 8 17
REMARK SMILES IDX 2 20 1 22 12 26 13 27 28 28 14 29 16 31 15 32 17 34 18 35
REMARK SMILES IDX 27 36 19 37 21 39 26 40 20 41 22 42 25 43 24 44 23 46
REMARK H PARENT 11 2 11 3 4 10 5 13 29 16 7 18 8 19 2 21 1 23 1 24 1 25 13 30
REMARK H PARENT 15 33 18 38 25 45 23 47 23 48
REMARK Flexibility Score: inf
ROOT
ATOM      1  C   UNL     1     -46.831  34.995  25.953  1.00  0.00     0.132 C 
ATOM      2  H   UNL     1     -45.751  34.807  25.932  1.00  0.00     0.078 H 
ATOM      3  H   UNL     1     -47.195  35.207  24.940  1.00  0.00     0.078 H 
ENDROOT
BRANCH   1   4
ATOM      4  O   UNL     1     -47.511  33.861  26.499  1.00  0.00    -0.487 OA
BRANCH   4   5
ATOM      5  C   UNL     1     -47.519  32.719  25.745  1.00  0.00     0.122 A 
ATOM      6  C   UNL     1     -49.098  28.408  24.491  1.00  0.00     0.126 A 
ATOM      7  C   UNL     1     -48.152  28.304  23.478  1.00  0.00    -0.019 A 
ATOM      8  N   UNL     1     -49.163  29.494  25.288  1.00  0.00    -0.231 NA
ATOM      9  C   UNL     1     -47.263  29.352  23.262  1.00  0.00    -0.049 A 
ATOM     10  H   UNL     1     -48.097  27.410  22.867  1.00  0.00     0.066 H 
ATOM     11  C   UNL     1     -48.307  30.513  25.087  1.00  0.00     0.076 A 
ATOM     12  C   UNL     1     -47.331  30.487  24.073  1.00  0.00     0.001 A 
ATOM     13  H   UNL     1     -46.524  29.272  22.471  1.00  0.00     0.063 H 
ATOM     14  C   UNL     1     -48.384  31.633  25.906  1.00  0.00     0.007 A 
ATOM     15  C   UNL     1     -46.459  31.573  23.902  1.00  0.00    -0.049 A 
ATOM     16  H   UNL     1     -49.148  31.622  26.676  1.00  0.00     0.069 H 
ATOM     17  C   UNL     1     -46.558  32.683  24.738  1.00  0.00    -0.019 A 
ATOM     18  H   UNL     1     -45.703  31.561  23.121  1.00  0.00     0.063 H 
ATOM     19  H   UNL     1     -45.882  33.524  24.601  1.00  0.00     0.066 H 
BRANCH   6  20
ATOM     20  N   UNL     1     -49.962  27.317  24.697  1.00  0.00    -0.373 N 
ATOM     21  H   UNL     1     -50.883  27.556  24.341  1.00  0.00     0.161 HD
BRANCH  20  22
ATOM     22  C   UNL     1     -50.019  26.852  26.074  1.00  0.00     0.005 C 
ATOM     23  H   UNL     1     -49.146  26.242  26.329  1.00  0.00     0.045 H 
ATOM     24  H   UNL     1     -50.905  26.221  26.199  1.00  0.00     0.045 H 
ATOM     25  H   UNL     1     -50.107  27.687  26.778  1.00  0.00     0.045 H 
ENDBRANCH  20  22
ENDBRANCH   6  20
ENDBRANCH   4   5
ENDBRANCH   1   4
BRANCH   1  26
ATOM     26  C   UNL     1     -47.098  36.211  26.804  1.00  0.00     0.099 A 
ATOM     27  C   UNL     1     -48.362  36.471  27.311  1.00  0.00     0.052 A 
ATOM     28  N   UNL     1     -46.071  37.076  27.014  1.00  0.00    -0.228 NA
ATOM     29  N   UNL     1     -48.642  37.570  28.046  1.00  0.00    -0.259 NA
ATOM     30  H   UNL     1     -49.196  35.796  27.139  1.00  0.00     0.086 H 
ATOM     31  C   UNL     1     -46.322  38.184  27.755  1.00  0.00     0.157 A 
ATOM     32  C   UNL     1     -47.599  38.413  28.258  1.00  0.00     0.070 A 
ATOM     33  H   UNL     1     -47.865  39.276  28.855  1.00  0.00     0.088 H 
BRANCH  31  34
ATOM     34  N   UNL     1     -45.260  39.111  28.006  1.00  0.00    -0.282 N 
ATOM     35  C   UNL     1     -44.332  39.037  29.033  1.00  0.00     0.032 A 
ATOM     36  C   UNL     1     -44.969  40.257  27.264  1.00  0.00     0.152 A 
ATOM     37  C   UNL     1     -43.473  40.105  28.937  1.00  0.00     0.072 A 
ATOM     38  H   UNL     1     -44.337  38.238  29.760  1.00  0.00     0.084 H 
ATOM     39  C   UNL     1     -43.859  40.884  27.824  1.00  0.00     0.080 A 
ATOM     40  N   UNL     1     -45.639  40.704  26.182  1.00  0.00    -0.218 NA
ATOM     41  Cl  UNL     1     -42.176  40.429  29.991  1.00  0.00    -0.082 Cl
ATOM     42  C   UNL     1     -43.410  42.059  27.202  1.00  0.00     0.137 A 
ATOM     43  C   UNL     1     -45.125  41.830  25.677  1.00  0.00     0.120 A 
ATOM     44  N   UNL     1     -44.067  42.524  26.125  1.00  0.00    -0.219 NA
ATOM     45  H   UNL     1     -45.624  42.232  24.801  1.00  0.00     0.106 H 
BRANCH  42  46
ATOM     46  N   UNL     1     -42.318  42.797  27.632  1.00  0.00    -0.383 N 
ATOM     47  H   UNL     1     -41.462  42.501  27.178  1.00  0.00     0.158 HD
ATOM     48  H   UNL     1     -42.467  43.791  27.740  1.00  0.00     0.158 HD
ENDBRANCH  42  46
ENDBRANCH  31  34
ENDBRANCH   1  26
TORSDOF 7
ENDMDL
MODEL 7
REMARK VINA RESULT:      -9.1      3.432      5.581
REMARK SMILES CNc1ccc2ccc(OCc3cncc(-n4cc(Cl)c5c(N)ncnc54)n3)cc2n1
REMARK SMILES IDX 11 1 10 4 9 5 3 6 4 7 31 8 5 9 30 11 6 12 29 14 7 15 8 17
REMARK SMILES IDX 2 20 1 22 12 26 13 27 28 28 14 29 16 31 15 32 17 34 18 35
REMARK SMILES IDX 27 36 19 37 21 39 26 40 20 41 22 42 25 43 24 44 23 46
REMARK H PARENT 11 2 11 3 4 10 5 13 29 16 7 18 8 19 2 21 1 23 1 24 1 25 13 30
REMARK H PARENT 15 33 18 38 25 45 23 47 23 48
REMARK Flexibility Score: inf
ROOT
ATOM      1  C   UNL     1     -46.375  32.694  24.054  1.00  0.00     0.132 C 
ATOM      2  H   UNL     1     -47.277  33.210  23.702  1.00  0.00     0.078 H 
ATOM      3  H   UNL     1     -45.481  33.173  23.637  1.00  0.00     0.078 H 
ENDROOT
BRANCH   1   4
ATOM      4  O   UNL     1     -46.331  32.716  25.484  1.00  0.00    -0.487 OA
BRANCH   4   5
ATOM      5  C   UNL     1     -46.773  33.853  26.102  1.00  0.00     0.122 A 
ATOM      6  C   UNL     1     -46.233  38.062  28.258  1.00  0.00     0.126 A 
ATOM      7  C   UNL     1     -47.605  38.201  28.434  1.00  0.00    -0.019 A 
ATOM      8  N   UNL     1     -45.704  36.973  27.663  1.00  0.00    -0.231 NA
ATOM      9  C   UNL     1     -48.458  37.207  27.968  1.00  0.00    -0.049 A 
ATOM     10  H   UNL     1     -48.008  39.071  28.941  1.00  0.00     0.066 H 
ATOM     11  C   UNL     1     -46.523  36.006  27.209  1.00  0.00     0.076 A 
ATOM     12  C   UNL     1     -47.922  36.082  27.339  1.00  0.00     0.001 A 
ATOM     13  H   UNL     1     -49.530  37.315  28.105  1.00  0.00     0.063 H 
ATOM     14  C   UNL     1     -45.973  34.890  26.590  1.00  0.00     0.007 A 
ATOM     15  C   UNL     1     -48.735  35.048  26.851  1.00  0.00    -0.049 A 
ATOM     16  H   UNL     1     -44.891  34.863  26.505  1.00  0.00     0.069 H 
ATOM     17  C   UNL     1     -48.157  33.940  26.234  1.00  0.00    -0.019 A 
ATOM     18  H   UNL     1     -49.817  35.099  26.947  1.00  0.00     0.063 H 
ATOM     19  H   UNL     1     -48.790  33.141  25.855  1.00  0.00     0.066 H 
BRANCH   6  20
ATOM     20  N   UNL     1     -45.399  39.075  28.766  1.00  0.00    -0.373 N 
ATOM     21  H   UNL     1     -45.972  39.762  29.247  1.00  0.00     0.161 HD
BRANCH  20  22
ATOM     22  C   UNL     1     -44.536  39.692  27.772  1.00  0.00     0.005 C 
ATOM     23  H   UNL     1     -44.914  39.534  26.756  1.00  0.00     0.045 H 
ATOM     24  H   UNL     1     -43.545  39.229  27.825  1.00  0.00     0.045 H 
ATOM     25  H   UNL     1     -44.409  40.765  27.957  1.00  0.00     0.045 H 
ENDBRANCH  20  22
ENDBRANCH   6  20
ENDBRANCH   4   5
ENDBRANCH   1   4
BRANCH   1  26
ATOM     26  C   UNL     1     -46.408  31.268  23.565  1.00  0.00     0.099 A 
ATOM     27  C   UNL     1     -45.798  30.902  22.374  1.00  0.00     0.052 A 
ATOM     28  N   UNL     1     -47.102  30.360  24.301  1.00  0.00    -0.228 NA
ATOM     29  N   UNL     1     -45.842  29.640  21.890  1.00  0.00    -0.259 NA
ATOM     30  H   UNL     1     -45.252  31.619  21.768  1.00  0.00     0.086 H 
ATOM     31  C   UNL     1     -47.155  29.084  23.842  1.00  0.00     0.157 A 
ATOM     32  C   UNL     1     -46.526  28.746  22.648  1.00  0.00     0.070 A 
ATOM     33  H   UNL     1     -46.531  27.749  22.228  1.00  0.00     0.088 H 
BRANCH  31  34
ATOM     34  N   UNL     1     -47.868  28.100  24.599  1.00  0.00    -0.282 N 
ATOM     35  C   UNL     1     -47.308  27.120  25.403  1.00  0.00     0.032 A 
ATOM     36  C   UNL     1     -49.255  27.949  24.660  1.00  0.00     0.152 A 
ATOM     37  C   UNL     1     -48.316  26.373  25.964  1.00  0.00     0.072 A 
ATOM     38  H   UNL     1     -46.241  27.015  25.528  1.00  0.00     0.084 H 
ATOM     39  C   UNL     1     -49.552  26.884  25.508  1.00  0.00     0.080 A 
ATOM     40  N   UNL     1     -50.173  28.695  24.014  1.00  0.00    -0.218 NA
ATOM     41  Cl  UNL     1     -48.100  25.054  27.018  1.00  0.00    -0.082 Cl
ATOM     42  C   UNL     1     -50.909  26.584  25.702  1.00  0.00     0.137 A 
ATOM     43  C   UNL     1     -51.429  28.316  24.270  1.00  0.00     0.120 A 
ATOM     44  N   UNL     1     -51.840  27.312  25.063  1.00  0.00    -0.219 NA
ATOM     45  H   UNL     1     -52.211  28.887  23.779  1.00  0.00     0.106 H 
BRANCH  42  46
ATOM     46  N   UNL     1     -51.369  25.562  26.517  1.00  0.00    -0.383 N 
ATOM     47  H   UNL     1     -51.081  24.652  26.178  1.00  0.00     0.158 HD
ATOM     48  H   UNL     1     -51.311  25.726  27.513  1.00  0.00     0.158 HD
ENDBRANCH  42  46
ENDBRANCH  31  34
ENDBRANCH   1  26
TORSDOF 7
ENDMDL
