MODEL 1
REMARK VINA RESULT:     -10.6      0.000      0.000
REMARK SMILES CNc1ccc2ccc(OC[C@H]3O[C@@H](n4cc(Br)c5c(N)ncnc54)[C@@H](F)[C@@H]3O)cc2n1
REMARK SMILES IDX 11 1 10 4 9 5 3 6 4 7 32 8 5 9 31 11 6 12 30 14 7 15 8 17
REMARK SMILES IDX 2 20 1 22 12 26 13 27 28 28 14 30 26 31 27 34 29 36 15 38
REMARK SMILES IDX 16 39 25 40 17 41 19 43 24 44 18 45 20 46 23 47 22 48 21 50
REMARK H PARENT 11 2 11 3 4 10 5 13 30 16 7 18 8 19 2 21 1 23 1 24 1 25 12 29
REMARK H PARENT 28 32 14 33 26 35 29 37 16 42 23 49 21 51 21 52
REMARK Flexibility Score: inf
ROOT
ATOM      1  C   UNL     1     -47.134  35.939  27.172  1.00  0.00     0.117 C 
ATOM      2  H   UNL     1     -47.354  36.962  26.842  1.00  0.00     0.073 H 
ATOM      3  H   UNL     1     -48.052  35.454  27.523  1.00  0.00     0.073 H 
ENDROOT
BRANCH   1   4
ATOM      4  O   UNL     1     -46.583  35.227  26.068  1.00  0.00    -0.491 OA
BRANCH   4   5
ATOM      5  C   UNL     1     -47.126  34.010  25.767  1.00  0.00     0.121 A 
ATOM      6  C   UNL     1     -46.523  30.149  23.040  1.00  0.00     0.126 A 
ATOM      7  C   UNL     1     -47.662  29.549  23.561  1.00  0.00    -0.019 A 
ATOM      8  N   UNL     1     -46.129  31.377  23.434  1.00  0.00    -0.231 NA
ATOM      9  C   UNL     1     -48.405  30.217  24.528  1.00  0.00    -0.049 A 
ATOM     10  H   UNL     1     -47.978  28.572  23.209  1.00  0.00     0.066 H 
ATOM     11  C   UNL     1     -46.841  32.031  24.370  1.00  0.00     0.076 A 
ATOM     12  C   UNL     1     -47.999  31.483  24.954  1.00  0.00     0.001 A 
ATOM     13  H   UNL     1     -49.296  29.747  24.936  1.00  0.00     0.063 H 
ATOM     14  C   UNL     1     -46.433  33.289  24.788  1.00  0.00     0.007 A 
ATOM     15  C   UNL     1     -48.709  32.201  25.930  1.00  0.00    -0.049 A 
ATOM     16  H   UNL     1     -45.535  33.720  24.351  1.00  0.00     0.069 H 
ATOM     17  C   UNL     1     -48.273  33.464  26.334  1.00  0.00    -0.019 A 
ATOM     18  H   UNL     1     -49.605  31.781  26.380  1.00  0.00     0.063 H 
ATOM     19  H   UNL     1     -48.847  33.990  27.089  1.00  0.00     0.066 H 
BRANCH   6  20
ATOM     20  N   UNL     1     -45.807  29.453  22.047  1.00  0.00    -0.373 N 
ATOM     21  H   UNL     1     -46.439  28.807  21.582  1.00  0.00     0.161 HD
BRANCH  20  22
ATOM     22  C   UNL     1     -44.617  28.778  22.540  1.00  0.00     0.005 C 
ATOM     23  H   UNL     1     -43.930  28.527  21.725  1.00  0.00     0.045 H 
ATOM     24  H   UNL     1     -44.915  27.836  23.015  1.00  0.00     0.045 H 
ATOM     25  H   UNL     1     -44.095  29.377  23.294  1.00  0.00     0.045 H 
ENDBRANCH  20  22
ENDBRANCH   6  20
ENDBRANCH   4   5
ENDBRANCH   1   4
BRANCH   1  26
ATOM     26  C   UNL     1     -46.126  36.012  28.331  1.00  0.00     0.123 C 
ATOM     27  O   UNL     1     -45.033  36.887  27.968  1.00  0.00    -0.345 OA
ATOM     28  C   UNL     1     -46.700  36.515  29.662  1.00  0.00     0.119 C 
ATOM     29  H   UNL     1     -45.677  35.019  28.448  1.00  0.00     0.067 H 
ATOM     30  C   UNL     1     -44.958  37.932  28.956  1.00  0.00     0.169 C 
ATOM     31  C   UNL     1     -46.266  37.964  29.729  1.00  0.00     0.173 C 
ATOM     32  H   UNL     1     -47.783  36.385  29.751  1.00  0.00     0.066 H 
ATOM     33  H   UNL     1     -44.149  37.626  29.634  1.00  0.00     0.088 H 
ATOM     34  F   UNL     1     -47.200  38.752  29.143  1.00  0.00    -0.239 F 
ATOM     35  H   UNL     1     -46.120  38.335  30.748  1.00  0.00     0.074 H 
BRANCH  28  36
ATOM     36  O   UNL     1     -46.089  35.811  30.758  1.00  0.00    -0.387 OA
ATOM     37  H   UNL     1     -46.106  34.863  30.541  1.00  0.00     0.211 HD
ENDBRANCH  28  36
BRANCH  30  38
ATOM     38  N   UNL     1     -44.549  39.189  28.354  1.00  0.00    -0.302 N 
ATOM     39  C   UNL     1     -45.111  39.706  27.206  1.00  0.00     0.023 A 
ATOM     40  C   UNL     1     -43.563  40.038  28.799  1.00  0.00     0.148 A 
ATOM     41  C   UNL     1     -44.468  40.888  26.933  1.00  0.00     0.049 A 
ATOM     42  H   UNL     1     -45.912  39.194  26.688  1.00  0.00     0.083 H 
ATOM     43  C   UNL     1     -43.484  41.119  27.924  1.00  0.00     0.075 A 
ATOM     44  N   UNL     1     -42.801  39.852  29.888  1.00  0.00    -0.218 NA
ATOM     45  Br  UNL     1     -44.835  42.009  25.472  1.00  0.00    -0.048 Br
ATOM     46  C   UNL     1     -42.520  42.096  28.219  1.00  0.00     0.137 A 
ATOM     47  C   UNL     1     -41.907  40.835  30.057  1.00  0.00     0.120 A 
ATOM     48  N   UNL     1     -41.727  41.929  29.295  1.00  0.00    -0.219 NA
ATOM     49  H   UNL     1     -41.247  40.737  30.913  1.00  0.00     0.106 H 
BRANCH  46  50
ATOM     50  N   UNL     1     -42.303  43.235  27.456  1.00  0.00    -0.383 N 
ATOM     51  H   UNL     1     -41.606  43.829  27.891  1.00  0.00     0.158 HD
ATOM     52  H   UNL     1     -42.209  43.071  26.463  1.00  0.00     0.158 HD
ENDBRANCH  46  50
ENDBRANCH  30  38
ENDBRANCH   1  26
TORSDOF 8
ENDMDL
MODEL 2
REMARK VINA RESULT:      -9.3      3.223      9.898
REMARK SMILES CNc1ccc2ccc(OC[C@H]3O[C@@H](n4cc(Br)c5c(N)ncnc54)[C@@H](F)[C@@H]3O)cc2n1
REMARK SMILES IDX 11 1 10 4 9 5 3 6 4 7 32 8 5 9 31 11 6 12 30 14 7 15 8 17
REMARK SMILES IDX 2 20 1 22 12 26 13 27 28 28 14 30 26 31 27 34 29 36 15 38
REMARK SMILES IDX 16 39 25 40 17 41 19 43 24 44 18 45 20 46 23 47 22 48 21 50
REMARK H PARENT 11 2 11 3 4 10 5 13 30 16 7 18 8 19 2 21 1 23 1 24 1 25 12 29
REMARK H PARENT 28 32 14 33 26 35 29 37 16 42 23 49 21 51 21 52
REMARK Flexibility Score: inf
ROOT
ATOM      1  C   UNL     1     -48.079  35.874  26.818  1.00  0.00     0.117 C 
ATOM      2  H   UNL     1     -49.101  35.696  26.462  1.00  0.00     0.073 H 
ATOM      3  H   UNL     1     -47.452  36.233  25.993  1.00  0.00     0.073 H 
ENDROOT
BRANCH   1   4
ATOM      4  O   UNL     1     -48.135  36.843  27.860  1.00  0.00    -0.491 OA
BRANCH   4   5
ATOM      5  C   UNL     1     -47.014  37.588  28.092  1.00  0.00     0.121 A 
ATOM      6  C   UNL     1     -44.687  41.497  26.674  1.00  0.00     0.126 A 
ATOM      7  C   UNL     1     -43.674  41.284  27.602  1.00  0.00    -0.019 A 
ATOM      8  N   UNL     1     -45.727  40.648  26.558  1.00  0.00    -0.231 NA
ATOM      9  C   UNL     1     -43.743  40.182  28.447  1.00  0.00    -0.049 A 
ATOM     10  H   UNL     1     -42.831  41.965  27.660  1.00  0.00     0.066 H 
ATOM     11  C   UNL     1     -45.802  39.578  27.372  1.00  0.00     0.076 A 
ATOM     12  C   UNL     1     -44.823  39.303  28.344  1.00  0.00     0.001 A 
ATOM     13  H   UNL     1     -42.951  40.015  29.172  1.00  0.00     0.063 H 
ATOM     14  C   UNL     1     -46.877  38.708  27.265  1.00  0.00     0.007 A 
ATOM     15  C   UNL     1     -44.944  38.176  29.174  1.00  0.00    -0.049 A 
ATOM     16  H   UNL     1     -47.646  38.914  26.523  1.00  0.00     0.069 H 
ATOM     17  C   UNL     1     -46.038  37.320  29.046  1.00  0.00    -0.019 A 
ATOM     18  H   UNL     1     -44.186  37.960  29.923  1.00  0.00     0.063 H 
ATOM     19  H   UNL     1     -46.098  36.458  29.702  1.00  0.00     0.066 H 
BRANCH   6  20
ATOM     20  N   UNL     1     -44.575  42.611  25.821  1.00  0.00    -0.373 N 
ATOM     21  H   UNL     1     -45.418  43.174  25.907  1.00  0.00     0.161 HD
BRANCH  20  22
ATOM     22  C   UNL     1     -44.298  42.269  24.435  1.00  0.00     0.005 C 
ATOM     23  H   UNL     1     -45.221  42.162  23.855  1.00  0.00     0.045 H 
ATOM     24  H   UNL     1     -43.781  41.304  24.405  1.00  0.00     0.045 H 
ATOM     25  H   UNL     1     -43.645  43.009  23.958  1.00  0.00     0.045 H 
ENDBRANCH  20  22
ENDBRANCH   6  20
ENDBRANCH   4   5
ENDBRANCH   1   4
BRANCH   1  26
ATOM     26  C   UNL     1     -47.511  34.544  27.340  1.00  0.00     0.123 C 
ATOM     27  O   UNL     1     -48.286  33.444  26.808  1.00  0.00    -0.345 OA
ATOM     28  C   UNL     1     -46.039  34.283  26.995  1.00  0.00     0.119 C 
ATOM     29  H   UNL     1     -47.671  34.514  28.424  1.00  0.00     0.067 H 
ATOM     30  C   UNL     1     -47.386  32.574  26.096  1.00  0.00     0.169 C 
ATOM     31  C   UNL     1     -46.098  33.331  25.819  1.00  0.00     0.173 C 
ATOM     32  H   UNL     1     -45.470  35.193  26.784  1.00  0.00     0.066 H 
ATOM     33  H   UNL     1     -47.176  31.751  26.792  1.00  0.00     0.088 H 
ATOM     34  F   UNL     1     -46.142  34.032  24.660  1.00  0.00    -0.239 F 
ATOM     35  H   UNL     1     -45.241  32.652  25.758  1.00  0.00     0.074 H 
BRANCH  28  36
ATOM     36  O   UNL     1     -45.390  33.610  28.087  1.00  0.00    -0.387 OA
ATOM     37  H   UNL     1     -44.510  34.011  28.196  1.00  0.00     0.211 HD
ENDBRANCH  28  36
BRANCH  30  38
ATOM     38  N   UNL     1     -48.037  31.988  24.937  1.00  0.00    -0.302 N 
ATOM     39  C   UNL     1     -49.398  32.026  24.723  1.00  0.00     0.023 A 
ATOM     40  C   UNL     1     -47.433  31.312  23.902  1.00  0.00     0.148 A 
ATOM     41  C   UNL     1     -49.645  31.366  23.545  1.00  0.00     0.049 A 
ATOM     42  H   UNL     1     -50.067  32.515  25.420  1.00  0.00     0.083 H 
ATOM     43  C   UNL     1     -48.419  30.904  23.008  1.00  0.00     0.075 A 
ATOM     44  N   UNL     1     -46.117  31.080  23.780  1.00  0.00    -0.218 NA
ATOM     45  Br  UNL     1     -51.341  31.113  22.779  1.00  0.00    -0.048 Br
ATOM     46  C   UNL     1     -47.987  30.188  21.881  1.00  0.00     0.137 A 
ATOM     47  C   UNL     1     -45.825  30.374  22.680  1.00  0.00     0.120 A 
ATOM     48  N   UNL     1     -46.674  29.923  21.738  1.00  0.00    -0.219 NA
ATOM     49  H   UNL     1     -44.777  30.137  22.529  1.00  0.00     0.106 H 
BRANCH  46  50
ATOM     50  N   UNL     1     -48.830  29.704  20.891  1.00  0.00    -0.383 N 
ATOM     51  H   UNL     1     -48.527  28.789  20.578  1.00  0.00     0.158 HD
ATOM     52  H   UNL     1     -49.817  29.819  21.078  1.00  0.00     0.158 HD
ENDBRANCH  46  50
ENDBRANCH  30  38
ENDBRANCH   1  26
TORSDOF 8
ENDMDL
MODEL 3
REMARK VINA RESULT:      -9.2      1.826      2.428
REMARK SMILES CNc1ccc2ccc(OC[C@H]3O[C@@H](n4cc(Br)c5c(N)ncnc54)[C@@H](F)[C@@H]3O)cc2n1
REMARK SMILES IDX 11 1 10 4 9 5 3 6 4 7 32 8 5 9 31 11 6 12 30 14 7 15 8 17
REMARK SMILES IDX 2 20 1 22 12 26 13 27 28 28 14 30 26 31 27 34 29 36 15 38
REMARK SMILES IDX 16 39 25 40 17 41 19 43 24 44 18 45 20 46 23 47 22 48 21 50
REMARK H PARENT 11 2 11 3 4 10 5 13 30 16 7 18 8 19 2 21 1 23 1 24 1 25 12 29
REMARK H PARENT 28 32 14 33 26 35 29 37 16 42 23 49 21 51 21 52
REMARK Flexibility Score: inf
ROOT
ATOM      1  C   UNL     1     -45.928  35.662  27.895  1.00  0.00     0.117 C 
ATOM      2  H   UNL     1     -46.183  34.720  28.397  1.00  0.00     0.073 H 
ATOM      3  H   UNL     1     -44.875  35.907  28.073  1.00  0.00     0.073 H 
ENDROOT
BRANCH   1   4
ATOM      4  O   UNL     1     -46.175  35.502  26.502  1.00  0.00    -0.491 OA
BRANCH   4   5
ATOM      5  C   UNL     1     -46.930  34.432  26.112  1.00  0.00     0.121 A 
ATOM      6  C   UNL     1     -47.023  30.744  23.097  1.00  0.00     0.126 A 
ATOM      7  C   UNL     1     -48.258  30.325  23.577  1.00  0.00    -0.019 A 
ATOM      8  N   UNL     1     -46.414  31.845  23.580  1.00  0.00    -0.231 NA
ATOM      9  C   UNL     1     -48.873  31.044  24.596  1.00  0.00    -0.049 A 
ATOM     10  H   UNL     1     -48.744  29.453  23.154  1.00  0.00     0.066 H 
ATOM     11  C   UNL     1     -47.002  32.546  24.567  1.00  0.00     0.076 A 
ATOM     12  C   UNL     1     -48.245  32.178  25.115  1.00  0.00     0.001 A 
ATOM     13  H   UNL     1     -49.839  30.717  24.972  1.00  0.00     0.063 H 
ATOM     14  C   UNL     1     -46.373  33.672  25.078  1.00  0.00     0.007 A 
ATOM     15  C   UNL     1     -48.820  32.939  26.146  1.00  0.00    -0.049 A 
ATOM     16  H   UNL     1     -45.407  33.963  24.670  1.00  0.00     0.069 H 
ATOM     17  C   UNL     1     -48.162  34.065  26.642  1.00  0.00    -0.019 A 
ATOM     18  H   UNL     1     -49.781  32.657  26.567  1.00  0.00     0.063 H 
ATOM     19  H   UNL     1     -48.637  34.630  27.438  1.00  0.00     0.066 H 
BRANCH   6  20
ATOM     20  N   UNL     1     -46.438  30.005  22.051  1.00  0.00    -0.373 N 
ATOM     21  H   UNL     1     -47.099  29.295  21.744  1.00  0.00     0.161 HD
BRANCH  20  22
ATOM     22  C   UNL     1     -45.147  29.426  22.385  1.00  0.00     0.005 C 
ATOM     23  H   UNL     1     -44.941  29.494  23.459  1.00  0.00     0.045 H 
ATOM     24  H   UNL     1     -44.362  29.989  21.868  1.00  0.00     0.045 H 
ATOM     25  H   UNL     1     -45.074  28.382  22.059  1.00  0.00     0.045 H 
ENDBRANCH  20  22
ENDBRANCH   6  20
ENDBRANCH   4   5
ENDBRANCH   1   4
BRANCH   1  26
ATOM     26  C   UNL     1     -46.812  36.776  28.482  1.00  0.00     0.123 C 
ATOM     27  O   UNL     1     -45.975  37.839  28.993  1.00  0.00    -0.345 OA
ATOM     28  C   UNL     1     -47.809  37.402  27.499  1.00  0.00     0.119 C 
ATOM     29  H   UNL     1     -47.329  36.366  29.358  1.00  0.00     0.067 H 
ATOM     30  C   UNL     1     -46.352  39.057  28.324  1.00  0.00     0.169 C 
ATOM     31  C   UNL     1     -47.152  38.700  27.082  1.00  0.00     0.173 C 
ATOM     32  H   UNL     1     -48.058  36.754  26.653  1.00  0.00     0.066 H 
ATOM     33  H   UNL     1     -47.007  39.580  29.033  1.00  0.00     0.088 H 
ATOM     34  F   UNL     1     -46.366  38.492  25.997  1.00  0.00    -0.239 F 
ATOM     35  H   UNL     1     -47.862  39.492  26.822  1.00  0.00     0.074 H 
BRANCH  28  36
ATOM     36  O   UNL     1     -49.037  37.717  28.178  1.00  0.00    -0.387 OA
ATOM     37  H   UNL     1     -49.762  37.597  27.540  1.00  0.00     0.211 HD
ENDBRANCH  28  36
BRANCH  30  38
ATOM     38  N   UNL     1     -45.198  39.912  28.109  1.00  0.00    -0.302 N 
ATOM     39  C   UNL     1     -44.000  39.760  28.774  1.00  0.00     0.023 A 
ATOM     40  C   UNL     1     -45.108  40.982  27.250  1.00  0.00     0.148 A 
ATOM     41  C   UNL     1     -43.156  40.747  28.326  1.00  0.00     0.049 A 
ATOM     42  H   UNL     1     -43.851  38.972  29.500  1.00  0.00     0.083 H 
ATOM     43  C   UNL     1     -43.834  41.533  27.364  1.00  0.00     0.075 A 
ATOM     44  N   UNL     1     -46.086  41.424  26.445  1.00  0.00    -0.218 NA
ATOM     45  Br  UNL     1     -41.390  41.010  28.908  1.00  0.00    -0.048 Br
ATOM     46  C   UNL     1     -43.559  42.649  26.558  1.00  0.00     0.137 A 
ATOM     47  C   UNL     1     -45.717  42.501  25.740  1.00  0.00     0.120 A 
ATOM     48  N   UNL     1     -44.526  43.128  25.751  1.00  0.00    -0.219 NA
ATOM     49  H   UNL     1     -46.468  42.920  25.079  1.00  0.00     0.106 H 
BRANCH  46  50
ATOM     50  N   UNL     1     -42.346  43.323  26.544  1.00  0.00    -0.383 N 
ATOM     51  H   UNL     1     -42.480  44.304  26.761  1.00  0.00     0.158 HD
ATOM     52  H   UNL     1     -41.589  42.849  27.018  1.00  0.00     0.158 HD
ENDBRANCH  46  50
ENDBRANCH  30  38
ENDBRANCH   1  26
TORSDOF 8
ENDMDL
MODEL 4
REMARK VINA RESULT:      -9.0      1.831      2.323
REMARK SMILES CNc1ccc2ccc(OC[C@H]3O[C@@H](n4cc(Br)c5c(N)ncnc54)[C@@H](F)[C@@H]3O)cc2n1
REMARK SMILES IDX 11 1 10 4 9 5 3 6 4 7 32 8 5 9 31 11 6 12 30 14 7 15 8 17
REMARK SMILES IDX 2 20 1 22 12 26 13 27 28 28 14 30 26 31 27 34 29 36 15 38
REMARK SMILES IDX 16 39 25 40 17 41 19 43 24 44 18 45 20 46 23 47 22 48 21 50
REMARK H PARENT 11 2 11 3 4 10 5 13 30 16 7 18 8 19 2 21 1 23 1 24 1 25 12 29
REMARK H PARENT 28 32 14 33 26 35 29 37 16 42 23 49 21 51 21 52
REMARK Flexibility Score: inf
ROOT
ATOM      1  C   UNL     1     -45.797  34.971  28.007  1.00  0.00     0.117 C 
ATOM      2  H   UNL     1     -44.849  34.879  28.551  1.00  0.00     0.073 H 
ATOM      3  H   UNL     1     -45.610  35.335  26.990  1.00  0.00     0.073 H 
ENDROOT
BRANCH   1   4
ATOM      4  O   UNL     1     -46.415  33.689  27.973  1.00  0.00    -0.491 OA
BRANCH   4   5
ATOM      5  C   UNL     1     -46.646  33.130  26.748  1.00  0.00     0.121 A 
ATOM      6  C   UNL     1     -49.096  29.692  24.540  1.00  0.00     0.126 A 
ATOM      7  C   UNL     1     -48.566  30.046  23.305  1.00  0.00    -0.019 A 
ATOM      8  N   UNL     1     -48.747  30.339  25.669  1.00  0.00    -0.231 NA
ATOM      9  C   UNL     1     -47.670  31.107  23.225  1.00  0.00    -0.049 A 
ATOM     10  H   UNL     1     -48.838  29.493  22.412  1.00  0.00     0.066 H 
ATOM     11  C   UNL     1     -47.882  31.368  25.602  1.00  0.00     0.076 A 
ATOM     12  C   UNL     1     -47.313  31.794  24.387  1.00  0.00     0.001 A 
ATOM     13  H   UNL     1     -47.256  31.384  22.260  1.00  0.00     0.063 H 
ATOM     14  C   UNL     1     -47.530  32.046  26.759  1.00  0.00     0.007 A 
ATOM     15  C   UNL     1     -46.416  32.875  24.364  1.00  0.00    -0.049 A 
ATOM     16  H   UNL     1     -47.970  31.732  27.704  1.00  0.00     0.069 H 
ATOM     17  C   UNL     1     -46.083  33.540  25.545  1.00  0.00    -0.019 A 
ATOM     18  H   UNL     1     -45.973  33.202  23.427  1.00  0.00     0.063 H 
ATOM     19  H   UNL     1     -45.385  34.369  25.489  1.00  0.00     0.066 H 
BRANCH   6  20
ATOM     20  N   UNL     1     -49.983  28.600  24.586  1.00  0.00    -0.373 N 
ATOM     21  H   UNL     1     -50.912  28.944  24.814  1.00  0.00     0.161 HD
BRANCH  20  22
ATOM     22  C   UNL     1     -49.568  27.538  25.491  1.00  0.00     0.005 C 
ATOM     23  H   UNL     1     -48.955  27.926  26.311  1.00  0.00     0.045 H 
ATOM     24  H   UNL     1     -48.953  26.822  24.936  1.00  0.00     0.045 H 
ATOM     25  H   UNL     1     -50.428  26.993  25.896  1.00  0.00     0.045 H 
ENDBRANCH  20  22
ENDBRANCH   6  20
ENDBRANCH   4   5
ENDBRANCH   1   4
BRANCH   1  26
ATOM     26  C   UNL     1     -46.682  35.985  28.751  1.00  0.00     0.123 C 
ATOM     27  O   UNL     1     -45.912  37.172  29.051  1.00  0.00    -0.345 OA
ATOM     28  C   UNL     1     -47.942  36.427  27.996  1.00  0.00     0.119 C 
ATOM     29  H   UNL     1     -46.941  35.553  29.725  1.00  0.00     0.067 H 
ATOM     30  C   UNL     1     -46.588  38.297  28.458  1.00  0.00     0.169 C 
ATOM     31  C   UNL     1     -47.574  37.780  27.424  1.00  0.00     0.173 C 
ATOM     32  H   UNL     1     -48.271  35.714  27.235  1.00  0.00     0.066 H 
ATOM     33  H   UNL     1     -47.144  38.762  29.282  1.00  0.00     0.088 H 
ATOM     34  F   UNL     1     -47.015  37.626  26.199  1.00  0.00    -0.239 F 
ATOM     35  H   UNL     1     -48.426  38.458  27.310  1.00  0.00     0.074 H 
BRANCH  28  36
ATOM     36  O   UNL     1     -49.030  36.610  28.918  1.00  0.00    -0.387 OA
ATOM     37  H   UNL     1     -48.775  37.321  29.533  1.00  0.00     0.211 HD
ENDBRANCH  28  36
BRANCH  30  38
ATOM     38  N   UNL     1     -45.635  39.286  27.984  1.00  0.00    -0.302 N 
ATOM     39  C   UNL     1     -45.788  39.996  26.813  1.00  0.00     0.023 A 
ATOM     40  C   UNL     1     -44.458  39.659  28.591  1.00  0.00     0.148 A 
ATOM     41  C   UNL     1     -44.696  40.819  26.687  1.00  0.00     0.049 A 
ATOM     42  H   UNL     1     -46.652  39.858  26.176  1.00  0.00     0.083 H 
ATOM     43  C   UNL     1     -43.840  40.623  27.798  1.00  0.00     0.075 A 
ATOM     44  N   UNL     1     -43.983  39.171  29.747  1.00  0.00    -0.218 NA
ATOM     45  Br  UNL     1     -44.390  42.005  25.264  1.00  0.00    -0.048 Br
ATOM     46  C   UNL     1     -42.612  41.123  28.261  1.00  0.00     0.137 A 
ATOM     47  C   UNL     1     -42.801  39.706  30.078  1.00  0.00     0.120 A 
ATOM     48  N   UNL     1     -42.100  40.640  29.409  1.00  0.00    -0.219 NA
ATOM     49  H   UNL     1     -42.353  39.342  30.996  1.00  0.00     0.106 H 
BRANCH  46  50
ATOM     50  N   UNL     1     -41.860  42.083  27.599  1.00  0.00    -0.383 N 
ATOM     51  H   UNL     1     -41.849  41.903  26.601  1.00  0.00     0.158 HD
ATOM     52  H   UNL     1     -42.033  43.036  27.890  1.00  0.00     0.158 HD
ENDBRANCH  46  50
ENDBRANCH  30  38
ENDBRANCH   1  26
TORSDOF 8
ENDMDL
MODEL 5
REMARK VINA RESULT:      -8.9      4.946     11.107
REMARK SMILES CNc1ccc2ccc(OC[C@H]3O[C@@H](n4cc(Br)c5c(N)ncnc54)[C@@H](F)[C@@H]3O)cc2n1
REMARK SMILES IDX 11 1 10 4 9 5 3 6 4 7 32 8 5 9 31 11 6 12 30 14 7 15 8 17
REMARK SMILES IDX 2 20 1 22 12 26 13 27 28 28 14 30 26 31 27 34 29 36 15 38
REMARK SMILES IDX 16 39 25 40 17 41 19 43 24 44 18 45 20 46 23 47 22 48 21 50
REMARK H PARENT 11 2 11 3 4 10 5 13 30 16 7 18 8 19 2 21 1 23 1 24 1 25 12 29
REMARK H PARENT 28 32 14 33 26 35 29 37 16 42 23 49 21 51 21 52
REMARK Flexibility Score: inf
ROOT
ATOM      1  C   UNL     1     -45.969  31.851  23.087  1.00  0.00     0.117 C 
ATOM      2  H   UNL     1     -46.377  32.835  22.827  1.00  0.00     0.073 H 
ATOM      3  H   UNL     1     -44.884  31.920  23.228  1.00  0.00     0.073 H 
ENDROOT
BRANCH   1   4
ATOM      4  O   UNL     1     -46.601  31.412  24.286  1.00  0.00    -0.491 OA
BRANCH   4   5
ATOM      5  C   UNL     1     -47.285  32.342  25.016  1.00  0.00     0.121 A 
ATOM      6  C   UNL     1     -46.910  36.680  26.952  1.00  0.00     0.126 A 
ATOM      7  C   UNL     1     -48.206  36.618  27.452  1.00  0.00    -0.019 A 
ATOM      8  N   UNL     1     -46.371  35.657  26.260  1.00  0.00    -0.231 NA
ATOM      9  C   UNL     1     -48.975  35.484  27.215  1.00  0.00    -0.049 A 
ATOM     10  H   UNL     1     -48.612  37.441  28.031  1.00  0.00     0.066 H 
ATOM     11  C   UNL     1     -47.108  34.556  26.026  1.00  0.00     0.076 A 
ATOM     12  C   UNL     1     -48.431  34.424  26.486  1.00  0.00     0.001 A 
ATOM     13  H   UNL     1     -49.988  35.435  27.604  1.00  0.00     0.063 H 
ATOM     14  C   UNL     1     -46.562  33.506  25.302  1.00  0.00     0.007 A 
ATOM     15  C   UNL     1     -49.164  33.256  26.215  1.00  0.00    -0.049 A 
ATOM     16  H   UNL     1     -45.543  33.599  24.932  1.00  0.00     0.069 H 
ATOM     17  C   UNL     1     -48.590  32.217  25.482  1.00  0.00    -0.019 A 
ATOM     18  H   UNL     1     -50.185  33.152  26.574  1.00  0.00     0.063 H 
ATOM     19  H   UNL     1     -49.185  31.330  25.293  1.00  0.00     0.066 H 
BRANCH   6  20
ATOM     20  N   UNL     1     -46.154  37.834  27.229  1.00  0.00    -0.373 N 
ATOM     21  H   UNL     1     -45.172  37.576  27.280  1.00  0.00     0.161 HD
BRANCH  20  22
ATOM     22  C   UNL     1     -46.582  38.551  28.420  1.00  0.00     0.005 C 
ATOM     23  H   UNL     1     -47.160  37.907  29.092  1.00  0.00     0.045 H 
ATOM     24  H   UNL     1     -47.235  39.378  28.121  1.00  0.00     0.045 H 
ATOM     25  H   UNL     1     -45.731  38.981  28.961  1.00  0.00     0.045 H 
ENDBRANCH  20  22
ENDBRANCH   6  20
ENDBRANCH   4   5
ENDBRANCH   1   4
BRANCH   1  26
ATOM     26  C   UNL     1     -46.267  30.884  21.929  1.00  0.00     0.123 C 
ATOM     27  O   UNL     1     -46.519  29.560  22.455  1.00  0.00    -0.345 OA
ATOM     28  C   UNL     1     -47.464  31.270  21.051  1.00  0.00     0.119 C 
ATOM     29  H   UNL     1     -45.355  30.789  21.328  1.00  0.00     0.067 H 
ATOM     30  C   UNL     1     -47.826  29.151  22.012  1.00  0.00     0.169 C 
ATOM     31  C   UNL     1     -48.587  30.381  21.544  1.00  0.00     0.173 C 
ATOM     32  H   UNL     1     -47.711  32.334  21.086  1.00  0.00     0.066 H 
ATOM     33  H   UNL     1     -47.644  28.494  21.152  1.00  0.00     0.088 H 
ATOM     34  F   UNL     1     -49.254  30.998  22.551  1.00  0.00    -0.239 F 
ATOM     35  H   UNL     1     -49.321  30.128  20.774  1.00  0.00     0.074 H 
BRANCH  28  36
ATOM     36  O   UNL     1     -47.196  30.933  19.678  1.00  0.00    -0.387 OA
ATOM     37  H   UNL     1     -47.123  29.964  19.624  1.00  0.00     0.211 HD
ENDBRANCH  28  36
BRANCH  30  38
ATOM     38  N   UNL     1     -48.489  28.345  23.023  1.00  0.00    -0.302 N 
ATOM     39  C   UNL     1     -49.857  28.296  23.186  1.00  0.00     0.023 A 
ATOM     40  C   UNL     1     -47.890  27.535  23.960  1.00  0.00     0.148 A 
ATOM     41  C   UNL     1     -50.113  27.448  24.236  1.00  0.00     0.049 A 
ATOM     42  H   UNL     1     -50.524  28.861  22.548  1.00  0.00     0.083 H 
ATOM     43  C   UNL     1     -48.886  26.957  24.743  1.00  0.00     0.075 A 
ATOM     44  N   UNL     1     -46.570  27.343  24.100  1.00  0.00    -0.218 NA
ATOM     45  Br  UNL     1     -51.820  27.022  24.893  1.00  0.00    -0.048 Br
ATOM     46  C   UNL     1     -48.459  26.094  25.765  1.00  0.00     0.137 A 
ATOM     47  C   UNL     1     -46.281  26.519  25.115  1.00  0.00     0.120 A 
ATOM     48  N   UNL     1     -47.139  25.894  25.943  1.00  0.00    -0.219 NA
ATOM     49  H   UNL     1     -45.227  26.333  25.294  1.00  0.00     0.106 H 
BRANCH  46  50
ATOM     50  N   UNL     1     -49.312  25.435  26.639  1.00  0.00    -0.383 N 
ATOM     51  H   UNL     1     -49.638  26.064  27.363  1.00  0.00     0.158 HD
ATOM     52  H   UNL     1     -50.006  24.849  26.195  1.00  0.00     0.158 HD
ENDBRANCH  46  50
ENDBRANCH  30  38
ENDBRANCH   1  26
TORSDOF 8
ENDMDL
MODEL 6
REMARK VINA RESULT:      -8.7      4.939     11.499
REMARK SMILES CNc1ccc2ccc(OC[C@H]3O[C@@H](n4cc(Br)c5c(N)ncnc54)[C@@H](F)[C@@H]3O)cc2n1
REMARK SMILES IDX 11 1 10 4 9 5 3 6 4 7 32 8 5 9 31 11 6 12 30 14 7 15 8 17
REMARK SMILES IDX 2 20 1 22 12 26 13 27 28 28 14 30 26 31 27 34 29 36 15 38
REMARK SMILES IDX 16 39 25 40 17 41 19 43 24 44 18 45 20 46 23 47 22 48 21 50
REMARK H PARENT 11 2 11 3 4 10 5 13 30 16 7 18 8 19 2 21 1 23 1 24 1 25 12 29
REMARK H PARENT 28 32 14 33 26 35 29 37 16 42 23 49 21 51 21 52
REMARK Flexibility Score: inf
ROOT
ATOM      1  C   UNL     1     -46.213  31.692  24.128  1.00  0.00     0.117 C 
ATOM      2  H   UNL     1     -45.220  32.056  23.835  1.00  0.00     0.073 H 
ATOM      3  H   UNL     1     -46.124  31.009  24.981  1.00  0.00     0.073 H 
ENDROOT
BRANCH   1   4
ATOM      4  O   UNL     1     -47.015  32.818  24.470  1.00  0.00    -0.491 OA
BRANCH   4   5
ATOM      5  C   UNL     1     -46.754  33.443  25.657  1.00  0.00     0.121 A 
ATOM      6  C   UNL     1     -46.549  37.728  27.730  1.00  0.00     0.126 A 
ATOM      7  C   UNL     1     -46.189  37.169  28.951  1.00  0.00    -0.019 A 
ATOM      8  N   UNL     1     -46.755  36.965  26.638  1.00  0.00    -0.231 NA
ATOM      9  C   UNL     1     -46.059  35.789  29.058  1.00  0.00    -0.049 A 
ATOM     10  H   UNL     1     -46.001  37.803  29.811  1.00  0.00     0.066 H 
ATOM     11  C   UNL     1     -46.631  35.628  26.733  1.00  0.00     0.076 A 
ATOM     12  C   UNL     1     -46.283  34.987  27.937  1.00  0.00     0.001 A 
ATOM     13  H   UNL     1     -45.778  35.351  30.012  1.00  0.00     0.063 H 
ATOM     14  C   UNL     1     -46.855  34.838  25.615  1.00  0.00     0.007 A 
ATOM     15  C   UNL     1     -46.168  33.589  27.989  1.00  0.00    -0.049 A 
ATOM     16  H   UNL     1     -47.133  35.320  24.680  1.00  0.00     0.069 H 
ATOM     17  C   UNL     1     -46.402  32.818  26.849  1.00  0.00    -0.019 A 
ATOM     18  H   UNL     1     -45.896  33.093  28.917  1.00  0.00     0.063 H 
ATOM     19  H   UNL     1     -46.303  31.741  26.925  1.00  0.00     0.066 H 
BRANCH   6  20
ATOM     20  N   UNL     1     -46.652  39.130  27.653  1.00  0.00    -0.373 N 
ATOM     21  H   UNL     1     -47.244  39.370  26.862  1.00  0.00     0.161 HD
BRANCH  20  22
ATOM     22  C   UNL     1     -45.370  39.814  27.591  1.00  0.00     0.005 C 
ATOM     23  H   UNL     1     -44.605  39.193  27.111  1.00  0.00     0.045 H 
ATOM     24  H   UNL     1     -45.029  40.020  28.611  1.00  0.00     0.045 H 
ATOM     25  H   UNL     1     -45.449  40.774  27.068  1.00  0.00     0.045 H 
ENDBRANCH  20  22
ENDBRANCH   6  20
ENDBRANCH   4   5
ENDBRANCH   1   4
BRANCH   1  26
ATOM     26  C   UNL     1     -46.819  30.933  22.935  1.00  0.00     0.123 C 
ATOM     27  O   UNL     1     -46.949  29.531  23.269  1.00  0.00    -0.345 OA
ATOM     28  C   UNL     1     -48.195  31.431  22.478  1.00  0.00     0.119 C 
ATOM     29  H   UNL     1     -46.095  30.969  22.113  1.00  0.00     0.067 H 
ATOM     30  C   UNL     1     -48.334  29.169  23.116  1.00  0.00     0.169 C 
ATOM     31  C   UNL     1     -49.167  30.440  23.083  1.00  0.00     0.173 C 
ATOM     32  H   UNL     1     -48.405  32.466  22.761  1.00  0.00     0.066 H 
ATOM     33  H   UNL     1     -48.393  28.676  22.136  1.00  0.00     0.088 H 
ATOM     34  F   UNL     1     -49.539  30.854  24.319  1.00  0.00    -0.239 F 
ATOM     35  H   UNL     1     -50.081  30.303  22.496  1.00  0.00     0.074 H 
BRANCH  28  36
ATOM     36  O   UNL     1     -48.298  31.345  21.046  1.00  0.00    -0.387 OA
ATOM     37  H   UNL     1     -48.779  32.134  20.740  1.00  0.00     0.211 HD
ENDBRANCH  28  36
BRANCH  30  38
ATOM     38  N   UNL     1     -48.727  28.182  24.107  1.00  0.00    -0.302 N 
ATOM     39  C   UNL     1     -47.830  27.476  24.880  1.00  0.00     0.023 A 
ATOM     40  C   UNL     1     -50.007  27.790  24.424  1.00  0.00     0.148 A 
ATOM     41  C   UNL     1     -48.558  26.634  25.684  1.00  0.00     0.049 A 
ATOM     42  H   UNL     1     -46.762  27.631  24.793  1.00  0.00     0.083 H 
ATOM     43  C   UNL     1     -49.936  26.813  25.413  1.00  0.00     0.075 A 
ATOM     44  N   UNL     1     -51.132  28.263  23.867  1.00  0.00    -0.218 NA
ATOM     45  Br  UNL     1     -47.834  25.435  26.935  1.00  0.00    -0.048 Br
ATOM     46  C   UNL     1     -51.157  26.285  25.862  1.00  0.00     0.137 A 
ATOM     47  C   UNL     1     -52.229  27.676  24.358  1.00  0.00     0.120 A 
ATOM     48  N   UNL     1     -52.304  26.727  25.311  1.00  0.00    -0.219 NA
ATOM     49  H   UNL     1     -53.175  28.002  23.939  1.00  0.00     0.106 H 
BRANCH  46  50
ATOM     50  N   UNL     1     -51.273  25.306  26.839  1.00  0.00    -0.383 N 
ATOM     51  H   UNL     1     -50.393  25.180  27.325  1.00  0.00     0.158 HD
ATOM     52  H   UNL     1     -52.106  25.368  27.408  1.00  0.00     0.158 HD
ENDBRANCH  46  50
ENDBRANCH  30  38
ENDBRANCH   1  26
TORSDOF 8
ENDMDL
MODEL 7
REMARK VINA RESULT:      -8.4      1.923      2.362
REMARK SMILES CNc1ccc2ccc(OC[C@H]3O[C@@H](n4cc(Br)c5c(N)ncnc54)[C@@H](F)[C@@H]3O)cc2n1
REMARK SMILES IDX 11 1 10 4 9 5 3 6 4 7 32 8 5 9 31 11 6 12 30 14 7 15 8 17
REMARK SMILES IDX 2 20 1 22 12 26 13 27 28 28 14 30 26 31 27 34 29 36 15 38
REMARK SMILES IDX 16 39 25 40 17 41 19 43 24 44 18 45 20 46 23 47 22 48 21 50
REMARK H PARENT 11 2 11 3 4 10 5 13 30 16 7 18 8 19 2 21 1 23 1 24 1 25 12 29
REMARK H PARENT 28 32 14 33 26 35 29 37 16 42 23 49 21 51 21 52
REMARK Flexibility Score: inf
ROOT
ATOM      1  C   UNL     1     -46.661  34.991  26.586  1.00  0.00     0.117 C 
ATOM      2  H   UNL     1     -45.863  34.574  25.959  1.00  0.00     0.073 H 
ATOM      3  H   UNL     1     -47.215  35.755  26.027  1.00  0.00     0.073 H 
ENDROOT
BRANCH   1   4
ATOM      4  O   UNL     1     -47.525  33.927  26.969  1.00  0.00    -0.491 OA
BRANCH   4   5
ATOM      5  C   UNL     1     -47.959  33.080  25.989  1.00  0.00     0.121 A 
ATOM      6  C   UNL     1     -46.441  30.254  22.465  1.00  0.00     0.126 A 
ATOM      7  C   UNL     1     -47.742  29.886  22.141  1.00  0.00    -0.019 A 
ATOM      8  N   UNL     1     -46.182  31.126  23.460  1.00  0.00    -0.231 NA
ATOM      9  C   UNL     1     -48.802  30.410  22.872  1.00  0.00    -0.049 A 
ATOM     10  H   UNL     1     -47.930  29.204  21.318  1.00  0.00     0.066 H 
ATOM     11  C   UNL     1     -47.202  31.638  24.173  1.00  0.00     0.076 A 
ATOM     12  C   UNL     1     -48.544  31.304  23.914  1.00  0.00     0.001 A 
ATOM     13  H   UNL     1     -49.819  30.123  22.619  1.00  0.00     0.063 H 
ATOM     14  C   UNL     1     -46.940  32.525  25.206  1.00  0.00     0.007 A 
ATOM     15  C   UNL     1     -49.577  31.861  24.686  1.00  0.00    -0.049 A 
ATOM     16  H   UNL     1     -45.906  32.786  25.423  1.00  0.00     0.069 H 
ATOM     17  C   UNL     1     -49.283  32.749  25.721  1.00  0.00    -0.019 A 
ATOM     18  H   UNL     1     -50.614  31.606  24.484  1.00  0.00     0.063 H 
ATOM     19  H   UNL     1     -50.105  33.162  26.296  1.00  0.00     0.066 H 
BRANCH   6  20
ATOM     20  N   UNL     1     -45.394  29.720  21.691  1.00  0.00    -0.373 N 
ATOM     21  H   UNL     1     -45.786  29.320  20.843  1.00  0.00     0.161 HD
BRANCH  20  22
ATOM     22  C   UNL     1     -44.563  28.760  22.402  1.00  0.00     0.005 C 
ATOM     23  H   UNL     1     -44.355  27.876  21.789  1.00  0.00     0.045 H 
ATOM     24  H   UNL     1     -45.101  28.417  23.293  1.00  0.00     0.045 H 
ATOM     25  H   UNL     1     -43.621  29.209  22.736  1.00  0.00     0.045 H 
ENDBRANCH  20  22
ENDBRANCH   6  20
ENDBRANCH   4   5
ENDBRANCH   1   4
BRANCH   1  26
ATOM     26  C   UNL     1     -46.013  35.640  27.820  1.00  0.00     0.123 C 
ATOM     27  O   UNL     1     -45.620  36.996  27.505  1.00  0.00    -0.345 OA
ATOM     28  C   UNL     1     -46.901  35.693  29.070  1.00  0.00     0.119 C 
ATOM     29  H   UNL     1     -45.077  35.107  28.027  1.00  0.00     0.067 H 
ATOM     30  C   UNL     1     -46.276  37.874  28.439  1.00  0.00     0.169 C 
ATOM     31  C   UNL     1     -47.419  37.116  29.096  1.00  0.00     0.173 C 
ATOM     32  H   UNL     1     -47.699  34.946  29.074  1.00  0.00     0.066 H 
ATOM     33  H   UNL     1     -45.516  38.103  29.197  1.00  0.00     0.088 H 
ATOM     34  F   UNL     1     -48.574  37.200  28.392  1.00  0.00    -0.239 F 
ATOM     35  H   UNL     1     -47.622  37.494  30.102  1.00  0.00     0.074 H 
BRANCH  28  36
ATOM     36  O   UNL     1     -46.105  35.483  30.249  1.00  0.00    -0.387 OA
ATOM     37  H   UNL     1     -45.204  35.793  30.051  1.00  0.00     0.211 HD
ENDBRANCH  28  36
BRANCH  30  38
ATOM     38  N   UNL     1     -46.633  39.132  27.807  1.00  0.00    -0.302 N 
ATOM     39  C   UNL     1     -47.926  39.602  27.715  1.00  0.00     0.023 A 
ATOM     40  C   UNL     1     -45.780  40.029  27.206  1.00  0.00     0.148 A 
ATOM     41  C   UNL     1     -47.878  40.803  27.049  1.00  0.00     0.049 A 
ATOM     42  H   UNL     1     -48.760  39.050  28.128  1.00  0.00     0.083 H 
ATOM     43  C   UNL     1     -46.533  41.092  26.716  1.00  0.00     0.075 A 
ATOM     44  N   UNL     1     -44.449  39.896  27.104  1.00  0.00    -0.218 NA
ATOM     45  Br  UNL     1     -49.363  41.877  26.643  1.00  0.00    -0.048 Br
ATOM     46  C   UNL     1     -45.825  42.112  26.059  1.00  0.00     0.137 A 
ATOM     47  C   UNL     1     -43.885  40.915  26.444  1.00  0.00     0.120 A 
ATOM     48  N   UNL     1     -44.489  41.999  25.925  1.00  0.00    -0.219 NA
ATOM     49  H   UNL     1     -42.809  40.862  26.312  1.00  0.00     0.106 H 
BRANCH  46  50
ATOM     50  N   UNL     1     -46.413  43.242  25.508  1.00  0.00    -0.383 N 
ATOM     51  H   UNL     1     -47.396  43.288  25.751  1.00  0.00     0.158 HD
ATOM     52  H   UNL     1     -45.877  44.093  25.608  1.00  0.00     0.158 HD
ENDBRANCH  46  50
ENDBRANCH  30  38
ENDBRANCH   1  26
TORSDOF 8
ENDMDL
