MODEL 1
REMARK VINA RESULT:      -9.4      0.000      0.000
REMARK SMILES CNc1ccc2ccc(OCc3nc(-n4ccc5c(N)ncnc54)cs3)cc2n1.O=C(O)C(F)(F)F
REMARK SMILES IDX 11 1 10 4 9 5 3 6 4 7 29 8 5 9 28 11 6 12 27 14 7 15 8 17
REMARK SMILES IDX 2 20 1 22 12 26 13 27 26 28 14 29 25 30 15 32 16 33 24 34
REMARK SMILES IDX 17 35 18 37 23 38 19 40 22 41 21 42 20 44
REMARK H PARENT 11 2 11 3 4 10 5 13 27 16 7 18 8 19 2 21 1 23 1 24 1 25 25 31
REMARK H PARENT 16 36 17 39 22 43 20 45 20 46
REMARK Flexibility Score: inf
ROOT
ATOM      1  C   UNL     1     -47.251  35.215  27.982  1.00  0.00     0.140 C 
ATOM      2  H   UNL     1     -48.223  35.558  27.606  1.00  0.00     0.078 H 
ATOM      3  H   UNL     1     -47.400  34.508  28.808  1.00  0.00     0.078 H 
ENDROOT
BRANCH   1   4
ATOM      4  O   UNL     1     -46.493  34.599  26.940  1.00  0.00    -0.486 OA
BRANCH   4   5
ATOM      5  C   UNL     1     -47.134  33.668  26.169  1.00  0.00     0.122 A 
ATOM      6  C   UNL     1     -46.680  31.037  22.229  1.00  0.00     0.126 A 
ATOM      7  C   UNL     1     -47.923  30.449  22.410  1.00  0.00    -0.019 A 
ATOM      8  N   UNL     1     -46.178  31.944  23.087  1.00  0.00    -0.231 NA
ATOM      9  C   UNL     1     -48.689  30.823  23.509  1.00  0.00    -0.049 A 
ATOM     10  H   UNL     1     -48.287  29.695  21.722  1.00  0.00     0.066 H 
ATOM     11  C   UNL     1     -46.914  32.308  24.154  1.00  0.00     0.076 A 
ATOM     12  C   UNL     1     -48.191  31.771  24.407  1.00  0.00     0.001 A 
ATOM     13  H   UNL     1     -49.662  30.365  23.662  1.00  0.00     0.063 H 
ATOM     14  C   UNL     1     -46.413  33.247  25.045  1.00  0.00     0.007 A 
ATOM     15  C   UNL     1     -48.921  32.182  25.534  1.00  0.00    -0.049 A 
ATOM     16  H   UNL     1     -45.426  33.664  24.858  1.00  0.00     0.069 H 
ATOM     17  C   UNL     1     -48.393  33.130  26.413  1.00  0.00    -0.019 A 
ATOM     18  H   UNL     1     -49.906  31.765  25.734  1.00  0.00     0.063 H 
ATOM     19  H   UNL     1     -48.989  33.414  27.273  1.00  0.00     0.066 H 
BRANCH   6  20
ATOM     20  N   UNL     1     -45.849  30.701  21.157  1.00  0.00    -0.373 N 
ATOM     21  H   UNL     1     -44.915  30.708  21.568  1.00  0.00     0.161 HD
BRANCH  20  22
ATOM     22  C   UNL     1     -45.938  31.617  20.033  1.00  0.00     0.005 C 
ATOM     23  H   UNL     1     -46.468  31.171  19.186  1.00  0.00     0.045 H 
ATOM     24  H   UNL     1     -44.925  31.860  19.691  1.00  0.00     0.045 H 
ATOM     25  H   UNL     1     -46.428  32.556  20.315  1.00  0.00     0.045 H 
ENDBRANCH  20  22
ENDBRANCH   6  20
ENDBRANCH   4   5
ENDBRANCH   1   4
BRANCH   1  26
ATOM     26  C   UNL     1     -46.465  36.390  28.483  1.00  0.00     0.133 A 
ATOM     27  N   UNL     1     -46.009  37.360  27.715  1.00  0.00    -0.220 NA
ATOM     28  S   UNL     1     -46.048  36.522  30.148  1.00  0.00    -0.122 S 
ATOM     29  C   UNL     1     -45.319  38.288  28.471  1.00  0.00     0.149 A 
ATOM     30  C   UNL     1     -45.241  38.001  29.819  1.00  0.00     0.036 A 
ATOM     31  H   UNL     1     -44.765  38.551  30.616  1.00  0.00     0.078 H 
BRANCH  29  32
ATOM     32  N   UNL     1     -44.756  39.438  27.823  1.00  0.00    -0.285 N 
ATOM     33  C   UNL     1     -45.150  39.922  26.583  1.00  0.00     0.013 A 
ATOM     34  C   UNL     1     -43.741  40.267  28.296  1.00  0.00     0.151 A 
ATOM     35  C   UNL     1     -44.399  41.032  26.269  1.00  0.00    -0.031 A 
ATOM     36  H   UNL     1     -45.936  39.437  26.022  1.00  0.00     0.082 H 
ATOM     37  C   UNL     1     -43.504  41.255  27.345  1.00  0.00     0.062 A 
ATOM     38  N   UNL     1     -43.087  40.155  29.470  1.00  0.00    -0.218 NA
ATOM     39  H   UNL     1     -44.490  41.623  25.367  1.00  0.00     0.065 H 
ATOM     40  C   UNL     1     -42.506  42.197  27.636  1.00  0.00     0.136 A 
ATOM     41  C   UNL     1     -42.162  41.106  29.638  1.00  0.00     0.120 A 
ATOM     42  N   UNL     1     -41.835  42.104  28.798  1.00  0.00    -0.219 NA
ATOM     43  H   UNL     1     -41.603  41.067  30.568  1.00  0.00     0.106 H 
BRANCH  40  44
ATOM     44  N   UNL     1     -42.148  43.227  26.778  1.00  0.00    -0.383 N 
ATOM     45  H   UNL     1     -42.325  43.044  25.799  1.00  0.00     0.158 HD
ATOM     46  H   UNL     1     -41.222  43.569  27.008  1.00  0.00     0.158 HD
ENDBRANCH  40  44
ENDBRANCH  29  32
ENDBRANCH   1  26
TORSDOF 7
ENDMDL
MODEL 2
REMARK VINA RESULT:      -9.4      1.632     10.097
REMARK SMILES CNc1ccc2ccc(OCc3nc(-n4ccc5c(N)ncnc54)cs3)cc2n1.O=C(O)C(F)(F)F
REMARK SMILES IDX 11 1 10 4 9 5 3 6 4 7 29 8 5 9 28 11 6 12 27 14 7 15 8 17
REMARK SMILES IDX 2 20 1 22 12 26 13 27 26 28 14 29 25 30 15 32 16 33 24 34
REMARK SMILES IDX 17 35 18 37 23 38 19 40 22 41 21 42 20 44
REMARK H PARENT 11 2 11 3 4 10 5 13 27 16 7 18 8 19 2 21 1 23 1 24 1 25 25 31
REMARK H PARENT 16 36 17 39 22 43 20 45 20 46
REMARK Flexibility Score: inf
ROOT
ATOM      1  C   UNL     1     -46.693  36.792  26.778  1.00  0.00     0.140 C 
ATOM      2  H   UNL     1     -47.537  37.222  26.223  1.00  0.00     0.078 H 
ATOM      3  H   UNL     1     -45.747  37.147  26.350  1.00  0.00     0.078 H 
ENDROOT
BRANCH   1   4
ATOM      4  O   UNL     1     -46.766  37.138  28.162  1.00  0.00    -0.486 OA
BRANCH   4   5
ATOM      5  C   UNL     1     -45.720  37.847  28.683  1.00  0.00     0.122 A 
ATOM      6  C   UNL     1     -42.792  41.496  27.804  1.00  0.00     0.126 A 
ATOM      7  C   UNL     1     -42.132  41.330  29.012  1.00  0.00    -0.019 A 
ATOM      8  N   UNL     1     -43.820  40.712  27.429  1.00  0.00    -0.231 NA
ATOM      9  C   UNL     1     -42.533  40.305  29.862  1.00  0.00    -0.049 A 
ATOM     10  H   UNL     1     -41.330  41.999  29.303  1.00  0.00     0.066 H 
ATOM     11  C   UNL     1     -44.213  39.719  28.249  1.00  0.00     0.076 A 
ATOM     12  C   UNL     1     -43.591  39.474  29.488  1.00  0.00     0.001 A 
ATOM     13  H   UNL     1     -42.024  40.171  30.813  1.00  0.00     0.063 H 
ATOM     14  C   UNL     1     -45.269  38.898  27.875  1.00  0.00     0.007 A 
ATOM     15  C   UNL     1     -44.038  38.425  30.310  1.00  0.00    -0.049 A 
ATOM     16  H   UNL     1     -45.757  39.083  26.921  1.00  0.00     0.069 H 
ATOM     17  C   UNL     1     -45.100  37.614  29.907  1.00  0.00    -0.019 A 
ATOM     18  H   UNL     1     -43.561  38.237  31.269  1.00  0.00     0.063 H 
ATOM     19  H   UNL     1     -45.416  36.820  30.575  1.00  0.00     0.066 H 
BRANCH   6  20
ATOM     20  N   UNL     1     -42.454  42.511  26.906  1.00  0.00    -0.373 N 
ATOM     21  H   UNL     1     -42.411  43.344  27.492  1.00  0.00     0.161 HD
BRANCH  20  22
ATOM     22  C   UNL     1     -43.407  42.680  25.821  1.00  0.00     0.005 C 
ATOM     23  H   UNL     1     -43.702  43.728  25.700  1.00  0.00     0.045 H 
ATOM     24  H   UNL     1     -44.315  42.113  26.053  1.00  0.00     0.045 H 
ATOM     25  H   UNL     1     -43.010  42.302  24.873  1.00  0.00     0.045 H 
ENDBRANCH  20  22
ENDBRANCH   6  20
ENDBRANCH   4   5
ENDBRANCH   1   4
BRANCH   1  26
ATOM     26  C   UNL     1     -46.740  35.296  26.680  1.00  0.00     0.133 A 
ATOM     27  N   UNL     1     -47.445  34.632  25.785  1.00  0.00    -0.220 NA
ATOM     28  S   UNL     1     -45.886  34.315  27.808  1.00  0.00    -0.122 S 
ATOM     29  C   UNL     1     -47.287  33.271  25.961  1.00  0.00     0.149 A 
ATOM     30  C   UNL     1     -46.468  32.910  27.012  1.00  0.00     0.036 A 
ATOM     31  H   UNL     1     -46.184  31.929  27.362  1.00  0.00     0.078 H 
BRANCH  29  32
ATOM     32  N   UNL     1     -47.959  32.367  25.072  1.00  0.00    -0.285 N 
ATOM     33  C   UNL     1     -49.286  31.976  25.194  1.00  0.00     0.013 A 
ATOM     34  C   UNL     1     -47.433  31.730  23.951  1.00  0.00     0.151 A 
ATOM     35  C   UNL     1     -49.597  31.104  24.176  1.00  0.00    -0.031 A 
ATOM     36  H   UNL     1     -49.905  32.351  25.997  1.00  0.00     0.082 H 
ATOM     37  C   UNL     1     -48.431  30.940  23.387  1.00  0.00     0.062 A 
ATOM     38  N   UNL     1     -46.178  31.844  23.471  1.00  0.00    -0.218 NA
ATOM     39  H   UNL     1     -50.561  30.640  24.012  1.00  0.00     0.065 H 
ATOM     40  C   UNL     1     -48.095  30.209  22.239  1.00  0.00     0.136 A 
ATOM     41  C   UNL     1     -45.975  31.104  22.375  1.00  0.00     0.120 A 
ATOM     42  N   UNL     1     -46.849  30.301  21.743  1.00  0.00    -0.219 NA
ATOM     43  H   UNL     1     -44.981  31.157  21.943  1.00  0.00     0.106 H 
BRANCH  40  44
ATOM     44  N   UNL     1     -48.980  29.368  21.578  1.00  0.00    -0.383 N 
ATOM     45  H   UNL     1     -49.399  28.654  22.157  1.00  0.00     0.158 HD
ATOM     46  H   UNL     1     -48.576  29.053  20.703  1.00  0.00     0.158 HD
ENDBRANCH  40  44
ENDBRANCH  29  32
ENDBRANCH   1  26
TORSDOF 7
ENDMDL
MODEL 3
REMARK VINA RESULT:      -9.3      2.044      2.745
REMARK SMILES CNc1ccc2ccc(OCc3nc(-n4ccc5c(N)ncnc54)cs3)cc2n1.O=C(O)C(F)(F)F
REMARK SMILES IDX 11 1 10 4 9 5 3 6 4 7 29 8 5 9 28 11 6 12 27 14 7 15 8 17
REMARK SMILES IDX 2 20 1 22 12 26 13 27 26 28 14 29 25 30 15 32 16 33 24 34
REMARK SMILES IDX 17 35 18 37 23 38 19 40 22 41 21 42 20 44
REMARK H PARENT 11 2 11 3 4 10 5 13 27 16 7 18 8 19 2 21 1 23 1 24 1 25 25 31
REMARK H PARENT 16 36 17 39 22 43 20 45 20 46
REMARK Flexibility Score: inf
ROOT
ATOM      1  C   UNL     1     -46.845  34.574  27.701  1.00  0.00     0.140 C 
ATOM      2  H   UNL     1     -46.913  34.199  28.730  1.00  0.00     0.078 H 
ATOM      3  H   UNL     1     -45.876  34.297  27.268  1.00  0.00     0.078 H 
ENDROOT
BRANCH   1   4
ATOM      4  O   UNL     1     -47.908  34.056  26.900  1.00  0.00    -0.486 OA
BRANCH   4   5
ATOM      5  C   UNL     1     -47.586  33.091  25.985  1.00  0.00     0.122 A 
ATOM      6  C   UNL     1     -48.784  28.740  24.473  1.00  0.00     0.126 A 
ATOM      7  C   UNL     1     -47.801  28.748  23.496  1.00  0.00    -0.019 A 
ATOM      8  N   UNL     1     -48.985  29.780  25.304  1.00  0.00    -0.231 NA
ATOM      9  C   UNL     1     -46.977  29.862  23.380  1.00  0.00    -0.049 A 
ATOM     10  H   UNL     1     -47.685  27.910  22.817  1.00  0.00     0.066 H 
ATOM     11  C   UNL     1     -48.191  30.862  25.195  1.00  0.00     0.076 A 
ATOM     12  C   UNL     1     -47.161  30.948  24.239  1.00  0.00     0.001 A 
ATOM     13  H   UNL     1     -46.206  29.878  22.614  1.00  0.00     0.063 H 
ATOM     14  C   UNL     1     -48.382  31.941  26.048  1.00  0.00     0.007 A 
ATOM     15  C   UNL     1     -46.359  32.099  24.164  1.00  0.00    -0.049 A 
ATOM     16  H   UNL     1     -49.178  31.884  26.787  1.00  0.00     0.069 H 
ATOM     17  C   UNL     1     -46.572  33.168  25.036  1.00  0.00    -0.019 A 
ATOM     18  H   UNL     1     -45.565  32.169  23.423  1.00  0.00     0.063 H 
ATOM     19  H   UNL     1     -45.933  34.039  24.939  1.00  0.00     0.066 H 
BRANCH   6  20
ATOM     20  N   UNL     1     -49.658  27.663  24.639  1.00  0.00    -0.373 N 
ATOM     21  H   UNL     1     -50.570  28.056  24.406  1.00  0.00     0.161 HD
BRANCH  20  22
ATOM     22  C   UNL     1     -49.653  27.102  25.980  1.00  0.00     0.005 C 
ATOM     23  H   UNL     1     -50.607  26.622  26.222  1.00  0.00     0.045 H 
ATOM     24  H   UNL     1     -49.504  27.910  26.703  1.00  0.00     0.045 H 
ATOM     25  H   UNL     1     -48.839  26.381  26.113  1.00  0.00     0.045 H 
ENDBRANCH  20  22
ENDBRANCH   6  20
ENDBRANCH   4   5
ENDBRANCH   1   4
BRANCH   1  26
ATOM     26  C   UNL     1     -46.966  36.070  27.704  1.00  0.00     0.133 A 
ATOM     27  N   UNL     1     -45.945  36.897  27.604  1.00  0.00    -0.220 NA
ATOM     28  S   UNL     1     -48.500  36.826  27.901  1.00  0.00    -0.122 S 
ATOM     29  C   UNL     1     -46.381  38.208  27.647  1.00  0.00     0.149 A 
ATOM     30  C   UNL     1     -47.745  38.363  27.799  1.00  0.00     0.036 A 
ATOM     31  H   UNL     1     -48.334  39.265  27.863  1.00  0.00     0.078 H 
BRANCH  29  32
ATOM     32  N   UNL     1     -45.422  39.269  27.533  1.00  0.00    -0.285 N 
ATOM     33  C   UNL     1     -45.371  40.182  26.489  1.00  0.00     0.013 A 
ATOM     34  C   UNL     1     -44.393  39.581  28.418  1.00  0.00     0.151 A 
ATOM     35  C   UNL     1     -44.327  41.055  26.701  1.00  0.00    -0.031 A 
ATOM     36  H   UNL     1     -46.083  40.139  25.677  1.00  0.00     0.082 H 
ATOM     37  C   UNL     1     -43.702  40.680  27.916  1.00  0.00     0.062 A 
ATOM     38  N   UNL     1     -44.097  38.946  29.570  1.00  0.00    -0.218 NA
ATOM     39  H   UNL     1     -44.049  41.877  26.055  1.00  0.00     0.065 H 
ATOM     40  C   UNL     1     -42.616  41.152  28.669  1.00  0.00     0.136 A 
ATOM     41  C   UNL     1     -43.047  39.484  30.201  1.00  0.00     0.120 A 
ATOM     42  N   UNL     1     -42.297  40.533  29.819  1.00  0.00    -0.219 NA
ATOM     43  H   UNL     1     -42.762  39.013  31.137  1.00  0.00     0.106 H 
BRANCH  40  44
ATOM     44  N   UNL     1     -41.826  42.226  28.287  1.00  0.00    -0.383 N 
ATOM     45  H   UNL     1     -41.041  41.986  27.697  1.00  0.00     0.158 HD
ATOM     46  H   UNL     1     -41.619  42.811  29.089  1.00  0.00     0.158 HD
ENDBRANCH  40  44
ENDBRANCH  29  32
ENDBRANCH   1  26
TORSDOF 7
ENDMDL
MODEL 4
REMARK VINA RESULT:      -9.2      4.328     11.348
REMARK SMILES CNc1ccc2ccc(OCc3nc(-n4ccc5c(N)ncnc54)cs3)cc2n1.O=C(O)C(F)(F)F
REMARK SMILES IDX 11 1 10 4 9 5 3 6 4 7 29 8 5 9 28 11 6 12 27 14 7 15 8 17
REMARK SMILES IDX 2 20 1 22 12 26 13 27 26 28 14 29 25 30 15 32 16 33 24 34
REMARK SMILES IDX 17 35 18 37 23 38 19 40 22 41 21 42 20 44
REMARK H PARENT 11 2 11 3 4 10 5 13 27 16 7 18 8 19 2 21 1 23 1 24 1 25 25 31
REMARK H PARENT 16 36 17 39 22 43 20 45 20 46
REMARK Flexibility Score: inf
ROOT
ATOM      1  C   UNL     1     -46.476  31.990  23.656  1.00  0.00     0.140 C 
ATOM      2  H   UNL     1     -47.363  32.542  23.319  1.00  0.00     0.078 H 
ATOM      3  H   UNL     1     -45.638  32.180  22.974  1.00  0.00     0.078 H 
ENDROOT
BRANCH   1   4
ATOM      4  O   UNL     1     -46.120  32.367  24.988  1.00  0.00    -0.486 OA
BRANCH   4   5
ATOM      5  C   UNL     1     -46.931  33.271  25.617  1.00  0.00     0.122 A 
ATOM      6  C   UNL     1     -46.966  37.583  27.632  1.00  0.00     0.126 A 
ATOM      7  C   UNL     1     -48.317  37.495  27.931  1.00  0.00    -0.019 A 
ATOM      8  N   UNL     1     -46.301  36.601  26.996  1.00  0.00    -0.231 NA
ATOM      9  C   UNL     1     -49.009  36.342  27.577  1.00  0.00    -0.049 A 
ATOM     10  H   UNL     1     -48.835  38.316  28.412  1.00  0.00     0.066 H 
ATOM     11  C   UNL     1     -46.966  35.483  26.650  1.00  0.00     0.076 A 
ATOM     12  C   UNL     1     -48.336  35.306  26.925  1.00  0.00     0.001 A 
ATOM     13  H   UNL     1     -50.069  36.265  27.804  1.00  0.00     0.063 H 
ATOM     14  C   UNL     1     -46.294  34.458  25.998  1.00  0.00     0.007 A 
ATOM     15  C   UNL     1     -48.987  34.121  26.544  1.00  0.00    -0.049 A 
ATOM     16  H   UNL     1     -45.237  34.589  25.779  1.00  0.00     0.069 H 
ATOM     17  C   UNL     1     -48.285  33.106  25.892  1.00  0.00    -0.019 A 
ATOM     18  H   UNL     1     -50.046  33.983  26.752  1.00  0.00     0.063 H 
ATOM     19  H   UNL     1     -48.829  32.210  25.611  1.00  0.00     0.066 H 
BRANCH   6  20
ATOM     20  N   UNL     1     -46.209  38.716  27.943  1.00  0.00    -0.373 N 
ATOM     21  H   UNL     1     -46.147  38.689  28.961  1.00  0.00     0.161 HD
BRANCH  20  22
ATOM     22  C   UNL     1     -46.796  39.963  27.484  1.00  0.00     0.005 C 
ATOM     23  H   UNL     1     -46.048  40.621  27.031  1.00  0.00     0.045 H 
ATOM     24  H   UNL     1     -47.219  40.495  28.343  1.00  0.00     0.045 H 
ATOM     25  H   UNL     1     -47.607  39.787  26.768  1.00  0.00     0.045 H 
ENDBRANCH  20  22
ENDBRANCH   6  20
ENDBRANCH   4   5
ENDBRANCH   1   4
BRANCH   1  26
ATOM     26  C   UNL     1     -46.774  30.520  23.664  1.00  0.00     0.133 A 
ATOM     27  N   UNL     1     -47.559  29.927  24.541  1.00  0.00    -0.220 NA
ATOM     28  S   UNL     1     -46.038  29.469  22.516  1.00  0.00    -0.122 S 
ATOM     29  C   UNL     1     -47.625  28.570  24.288  1.00  0.00     0.149 A 
ATOM     30  C   UNL     1     -46.864  28.139  23.219  1.00  0.00     0.036 A 
ATOM     31  H   UNL     1     -46.739  27.146  22.817  1.00  0.00     0.078 H 
BRANCH  29  32
ATOM     32  N   UNL     1     -48.446  27.741  25.122  1.00  0.00    -0.285 N 
ATOM     33  C   UNL     1     -47.984  26.989  26.194  1.00  0.00     0.013 A 
ATOM     34  C   UNL     1     -49.821  27.538  25.026  1.00  0.00     0.151 A 
ATOM     35  C   UNL     1     -49.040  26.316  26.765  1.00  0.00    -0.031 A 
ATOM     36  H   UNL     1     -46.938  26.993  26.466  1.00  0.00     0.082 H 
ATOM     37  C   UNL     1     -50.205  26.655  26.032  1.00  0.00     0.062 A 
ATOM     38  N   UNL     1     -50.659  28.091  24.127  1.00  0.00    -0.218 NA
ATOM     39  H   UNL     1     -48.981  25.658  27.622  1.00  0.00     0.065 H 
ATOM     40  C   UNL     1     -51.564  26.317  26.103  1.00  0.00     0.136 A 
ATOM     41  C   UNL     1     -51.927  27.698  24.293  1.00  0.00     0.120 A 
ATOM     42  N   UNL     1     -52.420  26.851  25.214  1.00  0.00    -0.219 NA
ATOM     43  H   UNL     1     -52.649  28.113  23.596  1.00  0.00     0.106 H 
BRANCH  40  44
ATOM     44  N   UNL     1     -52.089  25.439  27.040  1.00  0.00    -0.383 N 
ATOM     45  H   UNL     1     -53.032  25.130  26.848  1.00  0.00     0.158 HD
ATOM     46  H   UNL     1     -51.913  25.781  27.978  1.00  0.00     0.158 HD
ENDBRANCH  40  44
ENDBRANCH  29  32
ENDBRANCH   1  26
TORSDOF 7
ENDMDL
MODEL 5
REMARK VINA RESULT:      -9.1      1.490      2.264
REMARK SMILES CNc1ccc2ccc(OCc3nc(-n4ccc5c(N)ncnc54)cs3)cc2n1.O=C(O)C(F)(F)F
REMARK SMILES IDX 11 1 10 4 9 5 3 6 4 7 29 8 5 9 28 11 6 12 27 14 7 15 8 17
REMARK SMILES IDX 2 20 1 22 12 26 13 27 26 28 14 29 25 30 15 32 16 33 24 34
REMARK SMILES IDX 17 35 18 37 23 38 19 40 22 41 21 42 20 44
REMARK H PARENT 11 2 11 3 4 10 5 13 27 16 7 18 8 19 2 21 1 23 1 24 1 25 25 31
REMARK H PARENT 16 36 17 39 22 43 20 45 20 46
REMARK Flexibility Score: inf
ROOT
ATOM      1  C   UNL     1     -46.262  35.859  28.028  1.00  0.00     0.140 C 
ATOM      2  H   UNL     1     -47.226  35.537  28.441  1.00  0.00     0.078 H 
ATOM      3  H   UNL     1     -45.447  35.517  28.678  1.00  0.00     0.078 H 
ENDROOT
BRANCH   1   4
ATOM      4  O   UNL     1     -46.081  35.351  26.705  1.00  0.00    -0.486 OA
BRANCH   4   5
ATOM      5  C   UNL     1     -46.986  34.425  26.264  1.00  0.00     0.122 A 
ATOM      6  C   UNL     1     -47.522  30.762  23.272  1.00  0.00     0.126 A 
ATOM      7  C   UNL     1     -48.841  30.570  23.654  1.00  0.00    -0.019 A 
ATOM      8  N   UNL     1     -46.748  31.724  23.808  1.00  0.00    -0.231 NA
ATOM      9  C   UNL     1     -49.392  31.413  24.613  1.00  0.00    -0.049 A 
ATOM     10  H   UNL     1     -49.430  29.765  23.231  1.00  0.00     0.066 H 
ATOM     11  C   UNL     1     -47.276  32.542  24.738  1.00  0.00     0.076 A 
ATOM     12  C   UNL     1     -48.609  32.424  25.175  1.00  0.00     0.001 A 
ATOM     13  H   UNL     1     -50.424  31.267  24.921  1.00  0.00     0.063 H 
ATOM     14  C   UNL     1     -46.492  33.542  25.297  1.00  0.00     0.007 A 
ATOM     15  C   UNL     1     -49.115  33.302  26.148  1.00  0.00    -0.049 A 
ATOM     16  H   UNL     1     -45.460  33.638  24.967  1.00  0.00     0.069 H 
ATOM     17  C   UNL     1     -48.305  34.300  26.691  1.00  0.00    -0.019 A 
ATOM     18  H   UNL     1     -50.144  33.210  26.490  1.00  0.00     0.063 H 
ATOM     19  H   UNL     1     -48.735  34.952  27.444  1.00  0.00     0.066 H 
BRANCH   6  20
ATOM     20  N   UNL     1     -46.896  29.947  22.326  1.00  0.00    -0.373 N 
ATOM     21  H   UNL     1     -47.249  29.015  22.542  1.00  0.00     0.161 HD
BRANCH  20  22
ATOM     22  C   UNL     1     -45.444  29.986  22.381  1.00  0.00     0.005 C 
ATOM     23  H   UNL     1     -45.041  29.181  23.004  1.00  0.00     0.045 H 
ATOM     24  H   UNL     1     -45.131  30.933  22.832  1.00  0.00     0.045 H 
ATOM     25  H   UNL     1     -45.001  29.929  21.381  1.00  0.00     0.045 H 
ENDBRANCH  20  22
ENDBRANCH   6  20
ENDBRANCH   4   5
ENDBRANCH   1   4
BRANCH   1  26
ATOM     26  C   UNL     1     -46.226  37.357  27.949  1.00  0.00     0.133 A 
ATOM     27  N   UNL     1     -45.125  38.066  27.810  1.00  0.00    -0.220 NA
ATOM     28  S   UNL     1     -47.674  38.278  28.093  1.00  0.00    -0.122 S 
ATOM     29  C   UNL     1     -45.422  39.416  27.778  1.00  0.00     0.149 A 
ATOM     30  C   UNL     1     -46.762  39.721  27.913  1.00  0.00     0.036 A 
ATOM     31  H   UNL     1     -47.254  40.681  27.923  1.00  0.00     0.078 H 
BRANCH  29  32
ATOM     32  N   UNL     1     -44.357  40.363  27.613  1.00  0.00    -0.285 N 
ATOM     33  C   UNL     1     -43.322  40.558  28.517  1.00  0.00     0.013 A 
ATOM     34  C   UNL     1     -44.159  41.240  26.549  1.00  0.00     0.151 A 
ATOM     35  C   UNL     1     -42.485  41.542  28.043  1.00  0.00    -0.031 A 
ATOM     36  H   UNL     1     -43.263  39.978  29.427  1.00  0.00     0.082 H 
ATOM     37  C   UNL     1     -43.008  41.981  26.801  1.00  0.00     0.062 A 
ATOM     38  N   UNL     1     -44.931  41.368  25.452  1.00  0.00    -0.218 NA
ATOM     39  H   UNL     1     -41.589  41.901  28.533  1.00  0.00     0.065 H 
ATOM     40  C   UNL     1     -42.635  42.932  25.840  1.00  0.00     0.136 A 
ATOM     41  C   UNL     1     -44.478  42.301  24.606  1.00  0.00     0.120 A 
ATOM     42  N   UNL     1     -43.392  43.082  24.738  1.00  0.00    -0.219 NA
ATOM     43  H   UNL     1     -45.061  42.447  23.702  1.00  0.00     0.106 H 
BRANCH  40  44
ATOM     44  N   UNL     1     -41.523  43.753  25.962  1.00  0.00    -0.383 N 
ATOM     45  H   UNL     1     -40.670  43.371  25.577  1.00  0.00     0.158 HD
ATOM     46  H   UNL     1     -41.462  44.122  26.905  1.00  0.00     0.158 HD
ENDBRANCH  40  44
ENDBRANCH  29  32
ENDBRANCH   1  26
TORSDOF 7
ENDMDL
MODEL 6
REMARK VINA RESULT:      -8.9      1.835      2.779
REMARK SMILES CNc1ccc2ccc(OCc3nc(-n4ccc5c(N)ncnc54)cs3)cc2n1.O=C(O)C(F)(F)F
REMARK SMILES IDX 11 1 10 4 9 5 3 6 4 7 29 8 5 9 28 11 6 12 27 14 7 15 8 17
REMARK SMILES IDX 2 20 1 22 12 26 13 27 26 28 14 29 25 30 15 32 16 33 24 34
REMARK SMILES IDX 17 35 18 37 23 38 19 40 22 41 21 42 20 44
REMARK H PARENT 11 2 11 3 4 10 5 13 27 16 7 18 8 19 2 21 1 23 1 24 1 25 25 31
REMARK H PARENT 16 36 17 39 22 43 20 45 20 46
REMARK Flexibility Score: inf
ROOT
ATOM      1  C   UNL     1     -46.304  34.379  27.832  1.00  0.00     0.140 C 
ATOM      2  H   UNL     1     -46.138  33.874  28.792  1.00  0.00     0.078 H 
ATOM      3  H   UNL     1     -45.471  34.166  27.151  1.00  0.00     0.078 H 
ENDROOT
BRANCH   1   4
ATOM      4  O   UNL     1     -47.538  33.960  27.246  1.00  0.00    -0.486 OA
BRANCH   4   5
ATOM      5  C   UNL     1     -47.462  33.155  26.142  1.00  0.00     0.122 A 
ATOM      6  C   UNL     1     -50.044  30.320  23.323  1.00  0.00     0.126 A 
ATOM      7  C   UNL     1     -48.953  30.033  22.517  1.00  0.00    -0.019 A 
ATOM      8  N   UNL     1     -49.962  31.145  24.383  1.00  0.00    -0.231 NA
ATOM      9  C   UNL     1     -47.722  30.604  22.824  1.00  0.00    -0.049 A 
ATOM     10  H   UNL     1     -49.056  29.393  21.648  1.00  0.00     0.066 H 
ATOM     11  C   UNL     1     -48.774  31.701  24.684  1.00  0.00     0.076 A 
ATOM     12  C   UNL     1     -47.613  31.455  23.926  1.00  0.00     0.001 A 
ATOM     13  H   UNL     1     -46.863  30.389  22.195  1.00  0.00     0.063 H 
ATOM     14  C   UNL     1     -48.671  32.551  25.777  1.00  0.00     0.007 A 
ATOM     15  C   UNL     1     -46.395  32.060  24.279  1.00  0.00    -0.049 A 
ATOM     16  H   UNL     1     -49.564  32.748  26.366  1.00  0.00     0.069 H 
ATOM     17  C   UNL     1     -46.320  32.908  25.385  1.00  0.00    -0.019 A 
ATOM     18  H   UNL     1     -45.498  31.874  23.692  1.00  0.00     0.063 H 
ATOM     19  H   UNL     1     -45.361  33.357  25.618  1.00  0.00     0.066 H 
BRANCH   6  20
ATOM     20  N   UNL     1     -51.314  29.795  23.069  1.00  0.00    -0.373 N 
ATOM     21  H   UNL     1     -51.118  28.862  22.706  1.00  0.00     0.161 HD
BRANCH  20  22
ATOM     22  C   UNL     1     -52.096  30.574  22.124  1.00  0.00     0.005 C 
ATOM     23  H   UNL     1     -52.711  31.325  22.628  1.00  0.00     0.045 H 
ATOM     24  H   UNL     1     -52.776  29.904  21.588  1.00  0.00     0.045 H 
ATOM     25  H   UNL     1     -51.458  31.065  21.381  1.00  0.00     0.045 H 
ENDBRANCH  20  22
ENDBRANCH   6  20
ENDBRANCH   4   5
ENDBRANCH   1   4
BRANCH   1  26
ATOM     26  C   UNL     1     -46.386  35.860  28.053  1.00  0.00     0.133 A 
ATOM     27  N   UNL     1     -45.339  36.653  28.163  1.00  0.00    -0.220 NA
ATOM     28  S   UNL     1     -47.912  36.637  28.236  1.00  0.00    -0.122 S 
ATOM     29  C   UNL     1     -45.744  37.958  28.369  1.00  0.00     0.149 A 
ATOM     30  C   UNL     1     -47.110  38.142  28.432  1.00  0.00     0.036 A 
ATOM     31  H   UNL     1     -47.679  39.047  28.583  1.00  0.00     0.078 H 
BRANCH  29  32
ATOM     32  N   UNL     1     -44.751  38.987  28.497  1.00  0.00    -0.285 N 
ATOM     33  C   UNL     1     -43.898  39.134  29.582  1.00  0.00     0.013 A 
ATOM     34  C   UNL     1     -44.457  40.000  27.588  1.00  0.00     0.151 A 
ATOM     35  C   UNL     1     -43.082  40.222  29.373  1.00  0.00    -0.031 A 
ATOM     36  H   UNL     1     -43.940  38.451  30.419  1.00  0.00     0.082 H 
ATOM     37  C   UNL     1     -43.430  40.778  28.116  1.00  0.00     0.062 A 
ATOM     38  N   UNL     1     -45.047  40.213  26.395  1.00  0.00    -0.218 NA
ATOM     39  H   UNL     1     -42.313  40.576  30.048  1.00  0.00     0.065 H 
ATOM     40  C   UNL     1     -42.987  41.862  27.346  1.00  0.00     0.136 A 
ATOM     41  C   UNL     1     -44.543  41.271  25.750  1.00  0.00     0.120 A 
ATOM     42  N   UNL     1     -43.563  42.099  26.154  1.00  0.00    -0.219 NA
ATOM     43  H   UNL     1     -44.980  41.490  24.781  1.00  0.00     0.106 H 
BRANCH  40  44
ATOM     44  N   UNL     1     -41.984  42.733  27.749  1.00  0.00    -0.383 N 
ATOM     45  H   UNL     1     -42.053  43.665  27.364  1.00  0.00     0.158 HD
ATOM     46  H   UNL     1     -41.079  42.284  27.672  1.00  0.00     0.158 HD
ENDBRANCH  40  44
ENDBRANCH  29  32
ENDBRANCH   1  26
TORSDOF 7
ENDMDL
MODEL 7
REMARK VINA RESULT:      -8.8      2.841     10.497
REMARK SMILES CNc1ccc2ccc(OCc3nc(-n4ccc5c(N)ncnc54)cs3)cc2n1.O=C(O)C(F)(F)F
REMARK SMILES IDX 11 1 10 4 9 5 3 6 4 7 29 8 5 9 28 11 6 12 27 14 7 15 8 17
REMARK SMILES IDX 2 20 1 22 12 26 13 27 26 28 14 29 25 30 15 32 16 33 24 34
REMARK SMILES IDX 17 35 18 37 23 38 19 40 22 41 21 42 20 44
REMARK H PARENT 11 2 11 3 4 10 5 13 27 16 7 18 8 19 2 21 1 23 1 24 1 25 25 31
REMARK H PARENT 16 36 17 39 22 43 20 45 20 46
REMARK Flexibility Score: inf
ROOT
ATOM      1  C   UNL     1     -48.500  35.223  27.147  1.00  0.00     0.140 C 
ATOM      2  H   UNL     1     -49.572  35.204  27.381  1.00  0.00     0.078 H 
ATOM      3  H   UNL     1     -48.256  36.139  26.595  1.00  0.00     0.078 H 
ENDROOT
BRANCH   1   4
ATOM      4  O   UNL     1     -47.719  35.146  28.340  1.00  0.00    -0.486 OA
BRANCH   4   5
ATOM      5  C   UNL     1     -46.825  36.157  28.567  1.00  0.00     0.122 A 
ATOM      6  C   UNL     1     -45.052  40.152  26.681  1.00  0.00     0.126 A 
ATOM      7  C   UNL     1     -44.219  40.362  27.770  1.00  0.00    -0.019 A 
ATOM      8  N   UNL     1     -45.889  39.101  26.606  1.00  0.00    -0.231 NA
ATOM      9  C   UNL     1     -44.234  39.445  28.815  1.00  0.00    -0.049 A 
ATOM     10  H   UNL     1     -43.580  41.237  27.820  1.00  0.00     0.066 H 
ATOM     11  C   UNL     1     -45.909  38.210  27.615  1.00  0.00     0.076 A 
ATOM     12  C   UNL     1     -45.088  38.342  28.752  1.00  0.00     0.001 A 
ATOM     13  H   UNL     1     -43.587  39.604  29.674  1.00  0.00     0.063 H 
ATOM     14  C   UNL     1     -46.763  37.118  27.550  1.00  0.00     0.007 A 
ATOM     15  C   UNL     1     -45.145  37.387  29.780  1.00  0.00    -0.049 A 
ATOM     16  H   UNL     1     -47.403  37.011  26.677  1.00  0.00     0.069 H 
ATOM     17  C   UNL     1     -46.012  36.296  29.687  1.00  0.00    -0.019 A 
ATOM     18  H   UNL     1     -44.514  37.488  30.661  1.00  0.00     0.063 H 
ATOM     19  H   UNL     1     -46.027  35.586  30.507  1.00  0.00     0.066 H 
BRANCH   6  20
ATOM     20  N   UNL     1     -45.102  41.037  25.602  1.00  0.00    -0.373 N 
ATOM     21  H   UNL     1     -44.757  40.479  24.820  1.00  0.00     0.161 HD
BRANCH  20  22
ATOM     22  C   UNL     1     -44.303  42.237  25.785  1.00  0.00     0.005 C 
ATOM     23  H   UNL     1     -44.764  42.925  26.501  1.00  0.00     0.045 H 
ATOM     24  H   UNL     1     -44.230  42.765  24.828  1.00  0.00     0.045 H 
ATOM     25  H   UNL     1     -43.286  41.998  26.113  1.00  0.00     0.045 H 
ENDBRANCH  20  22
ENDBRANCH   6  20
ENDBRANCH   4   5
ENDBRANCH   1   4
BRANCH   1  26
ATOM     26  C   UNL     1     -48.152  34.036  26.299  1.00  0.00     0.133 A 
ATOM     27  N   UNL     1     -49.028  33.155  25.859  1.00  0.00    -0.220 NA
ATOM     28  S   UNL     1     -46.515  33.709  25.876  1.00  0.00    -0.122 S 
ATOM     29  C   UNL     1     -48.397  32.178  25.114  1.00  0.00     0.149 A 
ATOM     30  C   UNL     1     -47.027  32.318  25.010  1.00  0.00     0.036 A 
ATOM     31  H   UNL     1     -46.307  31.701  24.495  1.00  0.00     0.078 H 
BRANCH  29  32
ATOM     32  N   UNL     1     -49.181  31.129  24.526  1.00  0.00    -0.285 N 
ATOM     33  C   UNL     1     -50.039  31.291  23.447  1.00  0.00     0.013 A 
ATOM     34  C   UNL     1     -49.231  29.791  24.909  1.00  0.00     0.151 A 
ATOM     35  C   UNL     1     -50.628  30.083  23.151  1.00  0.00    -0.031 A 
ATOM     36  H   UNL     1     -50.161  32.255  22.974  1.00  0.00     0.082 H 
ATOM     37  C   UNL     1     -50.126  29.130  24.072  1.00  0.00     0.062 A 
ATOM     38  N   UNL     1     -48.541  29.210  25.910  1.00  0.00    -0.218 NA
ATOM     39  H   UNL     1     -51.337  29.904  22.354  1.00  0.00     0.065 H 
ATOM     40  C   UNL     1     -50.321  27.760  24.298  1.00  0.00     0.136 A 
ATOM     41  C   UNL     1     -48.806  27.904  26.030  1.00  0.00     0.120 A 
ATOM     42  N   UNL     1     -49.648  27.157  25.294  1.00  0.00    -0.219 NA
ATOM     43  H   UNL     1     -48.277  27.382  26.822  1.00  0.00     0.106 H 
BRANCH  40  44
ATOM     44  N   UNL     1     -51.192  26.975  23.555  1.00  0.00    -0.383 N 
ATOM     45  H   UNL     1     -51.392  27.325  22.629  1.00  0.00     0.158 HD
ATOM     46  H   UNL     1     -51.994  26.714  24.118  1.00  0.00     0.158 HD
ENDBRANCH  40  44
ENDBRANCH  29  32
ENDBRANCH   1  26
TORSDOF 7
ENDMDL
