MODEL 1
REMARK VINA RESULT:      -9.5      0.000      0.000
REMARK SMILES CCc1cc(N(C)C)c2ccc(OCc3cncc(-n4ccc5c(N)ncnc54)c3)cc2n1.O=C(O)C(F)(F)F
REMARK SMILES IDX 14 1 13 4 12 5 3 6 4 7 33 8 5 9 32 11 9 12 31 13 10 14 11 16
REMARK SMILES IDX 2 19 1 22 6 26 7 27 8 31 15 35 16 36 30 37 17 38 19 40 18 42
REMARK SMILES IDX 20 44 21 45 29 46 22 47 23 49 28 50 24 52 27 53 26 54 25 56
REMARK H PARENT 14 2 14 3 4 10 31 15 10 17 11 18 2 20 2 21 1 23 1 24 1 25 7 28
REMARK H PARENT 7 29 7 30 8 32 8 33 8 34 16 39 30 41 18 43 21 48 22 51 27 55
REMARK H PARENT 25 57 25 58
REMARK Flexibility Score: inf
ROOT
ATOM      1  C   UNL     1     -47.931  36.350  27.337  1.00  0.00     0.115 C 
ATOM      2  H   UNL     1     -48.944  36.410  27.756  1.00  0.00     0.076 H 
ATOM      3  H   UNL     1     -47.976  36.848  26.360  1.00  0.00     0.076 H 
ENDROOT
BRANCH   1   4
ATOM      4  O   UNL     1     -47.008  37.101  28.129  1.00  0.00    -0.489 OA
BRANCH   4   5
ATOM      5  C   UNL     1     -46.500  38.264  27.619  1.00  0.00     0.122 A 
ATOM      6  C   UNL     1     -42.940  41.376  28.165  1.00  0.00     0.043 A 
ATOM      7  C   UNL     1     -43.399  42.196  27.141  1.00  0.00    -0.016 A 
ATOM      8  N   UNL     1     -43.571  40.237  28.524  1.00  0.00    -0.253 NA
ATOM      9  C   UNL     1     -44.561  41.845  26.448  1.00  0.00     0.047 A 
ATOM     10  H   UNL     1     -42.860  43.105  26.904  1.00  0.00     0.066 H 
ATOM     11  C   UNL     1     -44.690  39.885  27.870  1.00  0.00     0.076 A 
ATOM     12  C   UNL     1     -45.234  40.652  26.821  1.00  0.00     0.024 A 
ATOM     13  C   UNL     1     -45.335  38.715  28.248  1.00  0.00     0.007 A 
ATOM     14  C   UNL     1     -46.411  40.195  26.187  1.00  0.00    -0.047 A 
ATOM     15  H   UNL     1     -44.910  38.130  29.061  1.00  0.00     0.069 H 
ATOM     16  C   UNL     1     -47.042  39.015  26.584  1.00  0.00    -0.019 A 
ATOM     17  H   UNL     1     -46.840  40.772  25.370  1.00  0.00     0.063 H 
ATOM     18  H   UNL     1     -47.951  38.728  26.068  1.00  0.00     0.066 H 
BRANCH   6  19
ATOM     19  C   UNL     1     -41.681  41.722  28.915  1.00  0.00    -0.013 C 
ATOM     20  H   UNL     1     -41.709  42.780  29.199  1.00  0.00     0.033 H 
ATOM     21  H   UNL     1     -40.810  41.598  28.261  1.00  0.00     0.033 H 
BRANCH  19  22
ATOM     22  C   UNL     1     -41.522  40.869  30.164  1.00  0.00    -0.060 C 
ATOM     23  H   UNL     1     -41.912  39.857  30.007  1.00  0.00     0.023 H 
ATOM     24  H   UNL     1     -42.058  41.307  31.012  1.00  0.00     0.023 H 
ATOM     25  H   UNL     1     -40.465  40.786  30.435  1.00  0.00     0.023 H 
ENDBRANCH  19  22
ENDBRANCH   6  19
BRANCH   9  26
ATOM     26  N   UNL     1     -45.092  42.663  25.417  1.00  0.00    -0.377 N 
BRANCH  26  27
ATOM     27  C   UNL     1     -45.568  43.941  25.958  1.00  0.00     0.006 C 
ATOM     28  H   UNL     1     -44.978  44.252  26.829  1.00  0.00     0.046 H 
ATOM     29  H   UNL     1     -45.533  44.736  25.206  1.00  0.00     0.046 H 
ATOM     30  H   UNL     1     -46.606  43.837  26.295  1.00  0.00     0.046 H 
ENDBRANCH  26  27
BRANCH  26  31
ATOM     31  C   UNL     1     -44.241  42.792  24.233  1.00  0.00     0.006 C 
ATOM     32  H   UNL     1     -44.676  43.490  23.509  1.00  0.00     0.046 H 
ATOM     33  H   UNL     1     -43.267  43.198  24.527  1.00  0.00     0.046 H 
ATOM     34  H   UNL     1     -44.064  41.828  23.743  1.00  0.00     0.046 H 
ENDBRANCH  26  31
ENDBRANCH   9  26
ENDBRANCH   4   5
ENDBRANCH   1   4
BRANCH   1  35
ATOM     35  C   UNL     1     -47.500  34.926  27.097  1.00  0.00     0.010 A 
ATOM     36  C   UNL     1     -46.564  34.336  27.932  1.00  0.00     0.034 A 
ATOM     37  C   UNL     1     -48.047  34.130  26.079  1.00  0.00    -0.028 A 
ATOM     38  N   UNL     1     -46.137  33.064  27.805  1.00  0.00    -0.262 NA
ATOM     39  H   UNL     1     -46.111  34.883  28.757  1.00  0.00     0.084 H 
ATOM     40  C   UNL     1     -47.630  32.803  25.906  1.00  0.00     0.066 A 
ATOM     41  H   UNL     1     -48.805  34.579  25.444  1.00  0.00     0.065 H 
ATOM     42  C   UNL     1     -46.675  32.327  26.797  1.00  0.00     0.051 A 
ATOM     43  H   UNL     1     -46.264  31.326  26.755  1.00  0.00     0.086 H 
BRANCH  40  44
ATOM     44  N   UNL     1     -48.164  31.988  24.856  1.00  0.00    -0.300 N 
ATOM     45  C   UNL     1     -49.508  31.680  24.690  1.00  0.00     0.012 A 
ATOM     46  C   UNL     1     -47.470  31.359  23.817  1.00  0.00     0.150 A 
ATOM     47  C   UNL     1     -49.667  30.884  23.580  1.00  0.00    -0.031 A 
ATOM     48  H   UNL     1     -50.267  32.065  25.355  1.00  0.00     0.082 H 
ATOM     49  C   UNL     1     -48.385  30.670  23.025  1.00  0.00     0.061 A 
ATOM     50  N   UNL     1     -46.140  31.381  23.602  1.00  0.00    -0.218 NA
ATOM     51  H   UNL     1     -50.610  30.505  23.206  1.00  0.00     0.065 H 
ATOM     52  C   UNL     1     -47.881  29.966  21.922  1.00  0.00     0.136 A 
ATOM     53  C   UNL     1     -45.774  30.675  22.522  1.00  0.00     0.120 A 
ATOM     54  N   UNL     1     -46.559  29.977  21.685  1.00  0.00    -0.219 NA
ATOM     55  H   UNL     1     -44.712  30.663  22.297  1.00  0.00     0.106 H 
BRANCH  52  56
ATOM     56  N   UNL     1     -48.674  29.229  21.054  1.00  0.00    -0.383 N 
ATOM     57  H   UNL     1     -48.875  29.763  20.217  1.00  0.00     0.158 HD
ATOM     58  H   UNL     1     -48.381  28.272  20.914  1.00  0.00     0.158 HD
ENDBRANCH  52  56
ENDBRANCH  40  44
ENDBRANCH   1  35
TORSDOF 10
ENDMDL
MODEL 2
REMARK VINA RESULT:      -9.4      1.861     10.737
REMARK SMILES CCc1cc(N(C)C)c2ccc(OCc3cncc(-n4ccc5c(N)ncnc54)c3)cc2n1.O=C(O)C(F)(F)F
REMARK SMILES IDX 14 1 13 4 12 5 3 6 4 7 33 8 5 9 32 11 9 12 31 13 10 14 11 16
REMARK SMILES IDX 2 19 1 22 6 26 7 27 8 31 15 35 16 36 30 37 17 38 19 40 18 42
REMARK SMILES IDX 20 44 21 45 29 46 22 47 23 49 28 50 24 52 27 53 26 54 25 56
REMARK H PARENT 14 2 14 3 4 10 31 15 10 17 11 18 2 20 2 21 1 23 1 24 1 25 7 28
REMARK H PARENT 7 29 7 30 8 32 8 33 8 34 16 39 30 41 18 43 21 48 22 51 27 55
REMARK H PARENT 25 57 25 58
REMARK Flexibility Score: inf
ROOT
ATOM      1  C   UNL     1     -46.269  34.668  27.900  1.00  0.00     0.115 C 
ATOM      2  H   UNL     1     -46.845  33.966  28.516  1.00  0.00     0.076 H 
ATOM      3  H   UNL     1     -45.299  34.189  27.718  1.00  0.00     0.076 H 
ENDROOT
BRANCH   1   4
ATOM      4  O   UNL     1     -46.880  34.839  26.619  1.00  0.00    -0.489 OA
BRANCH   4   5
ATOM      5  C   UNL     1     -47.413  33.746  25.994  1.00  0.00     0.122 A 
ATOM      6  C   UNL     1     -46.387  30.346  22.825  1.00  0.00     0.043 A 
ATOM      7  C   UNL     1     -47.652  29.778  22.912  1.00  0.00    -0.016 A 
ATOM      8  N   UNL     1     -46.025  31.431  23.543  1.00  0.00    -0.253 NA
ATOM      9  C   UNL     1     -48.601  30.342  23.768  1.00  0.00     0.047 A 
ATOM     10  H   UNL     1     -47.892  28.915  22.303  1.00  0.00     0.066 H 
ATOM     11  C   UNL     1     -46.925  31.987  24.371  1.00  0.00     0.076 A 
ATOM     12  C   UNL     1     -48.233  31.486  24.524  1.00  0.00     0.024 A 
ATOM     13  C   UNL     1     -46.547  33.105  25.102  1.00  0.00     0.007 A 
ATOM     14  C   UNL     1     -49.106  32.134  25.425  1.00  0.00    -0.047 A 
ATOM     15  H   UNL     1     -45.537  33.489  24.976  1.00  0.00     0.069 H 
ATOM     16  C   UNL     1     -48.704  33.257  26.152  1.00  0.00    -0.019 A 
ATOM     17  H   UNL     1     -50.117  31.755  25.562  1.00  0.00     0.063 H 
ATOM     18  H   UNL     1     -49.426  33.718  26.814  1.00  0.00     0.066 H 
BRANCH   6  19
ATOM     19  C   UNL     1     -45.340  29.747  21.924  1.00  0.00    -0.013 C 
ATOM     20  H   UNL     1     -44.594  30.512  21.679  1.00  0.00     0.033 H 
ATOM     21  H   UNL     1     -45.795  29.439  20.975  1.00  0.00     0.033 H 
BRANCH  19  22
ATOM     22  C   UNL     1     -44.649  28.562  22.581  1.00  0.00    -0.060 C 
ATOM     23  H   UNL     1     -45.274  28.122  23.366  1.00  0.00     0.023 H 
ATOM     24  H   UNL     1     -43.700  28.862  23.038  1.00  0.00     0.023 H 
ATOM     25  H   UNL     1     -44.439  27.785  21.840  1.00  0.00     0.023 H 
ENDBRANCH  19  22
ENDBRANCH   6  19
BRANCH   9  26
ATOM     26  N   UNL     1     -49.919  29.823  23.870  1.00  0.00    -0.377 N 
BRANCH  26  27
ATOM     27  C   UNL     1     -50.676  30.078  22.640  1.00  0.00     0.006 C 
ATOM     28  H   UNL     1     -51.378  30.910  22.768  1.00  0.00     0.046 H 
ATOM     29  H   UNL     1     -50.014  30.301  21.797  1.00  0.00     0.046 H 
ATOM     30  H   UNL     1     -51.271  29.194  22.381  1.00  0.00     0.046 H 
ENDBRANCH  26  27
BRANCH  26  31
ATOM     31  C   UNL     1     -50.001  28.442  24.351  1.00  0.00     0.006 C 
ATOM     32  H   UNL     1     -49.553  28.344  25.346  1.00  0.00     0.046 H 
ATOM     33  H   UNL     1     -51.052  28.149  24.439  1.00  0.00     0.046 H 
ATOM     34  H   UNL     1     -49.516  27.735  23.667  1.00  0.00     0.046 H 
ENDBRANCH  26  31
ENDBRANCH   9  26
ENDBRANCH   4   5
ENDBRANCH   1   4
BRANCH   1  35
ATOM     35  C   UNL     1     -46.002  35.965  28.618  1.00  0.00     0.010 A 
ATOM     36  C   UNL     1     -46.225  36.061  29.984  1.00  0.00     0.034 A 
ATOM     37  C   UNL     1     -45.476  37.094  27.972  1.00  0.00    -0.028 A 
ATOM     38  N   UNL     1     -45.993  37.173  30.709  1.00  0.00    -0.262 NA
ATOM     39  H   UNL     1     -46.611  35.221  30.557  1.00  0.00     0.084 H 
ATOM     40  C   UNL     1     -45.223  38.274  28.685  1.00  0.00     0.066 A 
ATOM     41  H   UNL     1     -45.268  37.013  26.909  1.00  0.00     0.065 H 
ATOM     42  C   UNL     1     -45.502  38.253  30.047  1.00  0.00     0.051 A 
ATOM     43  H   UNL     1     -45.363  39.107  30.699  1.00  0.00     0.086 H 
BRANCH  40  44
ATOM     44  N   UNL     1     -44.709  39.441  28.031  1.00  0.00    -0.300 N 
ATOM     45  C   UNL     1     -45.168  39.944  26.820  1.00  0.00     0.012 A 
ATOM     46  C   UNL     1     -43.680  40.286  28.459  1.00  0.00     0.150 A 
ATOM     47  C   UNL     1     -44.459  41.075  26.490  1.00  0.00    -0.031 A 
ATOM     48  H   UNL     1     -45.985  39.483  26.285  1.00  0.00     0.082 H 
ATOM     49  C   UNL     1     -43.512  41.296  27.516  1.00  0.00     0.061 A 
ATOM     50  N   UNL     1     -42.945  40.161  29.582  1.00  0.00    -0.218 NA
ATOM     51  H   UNL     1     -44.614  41.680  25.606  1.00  0.00     0.065 H 
ATOM     52  C   UNL     1     -42.516  42.251  27.765  1.00  0.00     0.136 A 
ATOM     53  C   UNL     1     -42.026  41.128  29.715  1.00  0.00     0.120 A 
ATOM     54  N   UNL     1     -41.773  42.149  28.879  1.00  0.00    -0.219 NA
ATOM     55  H   UNL     1     -41.407  41.081  30.606  1.00  0.00     0.106 H 
BRANCH  52  56
ATOM     56  N   UNL     1     -42.232  43.305  26.908  1.00  0.00    -0.383 N 
ATOM     57  H   UNL     1     -41.235  43.362  26.734  1.00  0.00     0.158 HD
ATOM     58  H   UNL     1     -42.832  43.372  26.098  1.00  0.00     0.158 HD
ENDBRANCH  52  56
ENDBRANCH  40  44
ENDBRANCH   1  35
TORSDOF 10
ENDMDL
MODEL 3
REMARK VINA RESULT:      -9.3      1.979     10.715
REMARK SMILES CCc1cc(N(C)C)c2ccc(OCc3cncc(-n4ccc5c(N)ncnc54)c3)cc2n1.O=C(O)C(F)(F)F
REMARK SMILES IDX 14 1 13 4 12 5 3 6 4 7 33 8 5 9 32 11 9 12 31 13 10 14 11 16
REMARK SMILES IDX 2 19 1 22 6 26 7 27 8 31 15 35 16 36 30 37 17 38 19 40 18 42
REMARK SMILES IDX 20 44 21 45 29 46 22 47 23 49 28 50 24 52 27 53 26 54 25 56
REMARK H PARENT 14 2 14 3 4 10 31 15 10 17 11 18 2 20 2 21 1 23 1 24 1 25 7 28
REMARK H PARENT 7 29 7 30 8 32 8 33 8 34 16 39 30 41 18 43 21 48 22 51 27 55
REMARK H PARENT 25 57 25 58
REMARK Flexibility Score: inf
ROOT
ATOM      1  C   UNL     1     -47.128  34.990  27.901  1.00  0.00     0.115 C 
ATOM      2  H   UNL     1     -47.062  34.632  28.936  1.00  0.00     0.076 H 
ATOM      3  H   UNL     1     -46.162  34.756  27.435  1.00  0.00     0.076 H 
ENDROOT
BRANCH   1   4
ATOM      4  O   UNL     1     -48.114  34.256  27.171  1.00  0.00    -0.489 OA
BRANCH   4   5
ATOM      5  C   UNL     1     -47.702  33.393  26.194  1.00  0.00     0.122 A 
ATOM      6  C   UNL     1     -48.647  29.139  24.281  1.00  0.00     0.043 A 
ATOM      7  C   UNL     1     -47.604  29.233  23.368  1.00  0.00    -0.016 A 
ATOM      8  N   UNL     1     -48.923  30.113  25.175  1.00  0.00    -0.253 NA
ATOM      9  C   UNL     1     -46.794  30.372  23.365  1.00  0.00     0.047 A 
ATOM     10  H   UNL     1     -47.420  28.415  22.682  1.00  0.00     0.066 H 
ATOM     11  C   UNL     1     -48.155  31.214  25.187  1.00  0.00     0.076 A 
ATOM     12  C   UNL     1     -47.072  31.400  24.305  1.00  0.00     0.024 A 
ATOM     13  C   UNL     1     -48.441  32.209  26.112  1.00  0.00     0.007 A 
ATOM     14  C   UNL     1     -46.326  32.596  24.388  1.00  0.00    -0.047 A 
ATOM     15  H   UNL     1     -49.276  32.058  26.793  1.00  0.00     0.069 H 
ATOM     16  C   UNL     1     -46.634  33.583  25.326  1.00  0.00    -0.019 A 
ATOM     17  H   UNL     1     -45.492  32.759  23.708  1.00  0.00     0.063 H 
ATOM     18  H   UNL     1     -46.012  34.471  25.350  1.00  0.00     0.066 H 
BRANCH   6  19
ATOM     19  C   UNL     1     -49.546  27.931  24.292  1.00  0.00    -0.013 C 
ATOM     20  H   UNL     1     -49.729  27.608  23.260  1.00  0.00     0.033 H 
ATOM     21  H   UNL     1     -50.523  28.195  24.714  1.00  0.00     0.033 H 
BRANCH  19  22
ATOM     22  C   UNL     1     -48.931  26.783  25.078  1.00  0.00    -0.060 C 
ATOM     23  H   UNL     1     -47.945  26.514  24.684  1.00  0.00     0.023 H 
ATOM     24  H   UNL     1     -49.564  25.890  25.034  1.00  0.00     0.023 H 
ATOM     25  H   UNL     1     -48.812  27.064  26.128  1.00  0.00     0.023 H 
ENDBRANCH  19  22
ENDBRANCH   6  19
BRANCH   9  26
ATOM     26  N   UNL     1     -45.693  30.504  22.479  1.00  0.00    -0.377 N 
BRANCH  26  27
ATOM     27  C   UNL     1     -44.988  29.227  22.327  1.00  0.00     0.006 C 
ATOM     28  H   UNL     1     -44.828  28.981  21.271  1.00  0.00     0.046 H 
ATOM     29  H   UNL     1     -44.019  29.238  22.838  1.00  0.00     0.046 H 
ATOM     30  H   UNL     1     -45.590  28.418  22.757  1.00  0.00     0.046 H 
ENDBRANCH  26  27
BRANCH  26  31
ATOM     31  C   UNL     1     -46.000  31.175  21.214  1.00  0.00     0.006 C 
ATOM     32  H   UNL     1     -46.346  30.458  20.461  1.00  0.00     0.046 H 
ATOM     33  H   UNL     1     -46.809  31.895  21.371  1.00  0.00     0.046 H 
ATOM     34  H   UNL     1     -45.138  31.725  20.817  1.00  0.00     0.046 H 
ENDBRANCH  26  31
ENDBRANCH   9  26
ENDBRANCH   4   5
ENDBRANCH   1   4
BRANCH   1  35
ATOM     35  C   UNL     1     -47.312  36.483  27.828  1.00  0.00     0.010 A 
ATOM     36  C   UNL     1     -48.572  37.035  28.003  1.00  0.00     0.034 A 
ATOM     37  C   UNL     1     -46.241  37.371  27.641  1.00  0.00    -0.028 A 
ATOM     38  N   UNL     1     -48.825  38.359  27.976  1.00  0.00    -0.262 NA
ATOM     39  H   UNL     1     -49.448  36.413  28.175  1.00  0.00     0.084 H 
ATOM     40  C   UNL     1     -46.457  38.755  27.601  1.00  0.00     0.066 A 
ATOM     41  H   UNL     1     -45.248  36.944  27.538  1.00  0.00     0.065 H 
ATOM     42  C   UNL     1     -47.767  39.188  27.773  1.00  0.00     0.051 A 
ATOM     43  H   UNL     1     -48.061  40.230  27.747  1.00  0.00     0.086 H 
BRANCH  40  44
ATOM     44  N   UNL     1     -45.376  39.669  27.386  1.00  0.00    -0.300 N 
ATOM     45  C   UNL     1     -45.230  40.484  26.270  1.00  0.00     0.012 A 
ATOM     46  C   UNL     1     -44.284  39.925  28.222  1.00  0.00     0.150 A 
ATOM     47  C   UNL     1     -44.086  41.238  26.393  1.00  0.00    -0.031 A 
ATOM     48  H   UNL     1     -45.960  40.495  25.474  1.00  0.00     0.082 H 
ATOM     49  C   UNL     1     -43.478  40.887  27.619  1.00  0.00     0.061 A 
ATOM     50  N   UNL     1     -44.019  39.342  29.408  1.00  0.00    -0.218 NA
ATOM     51  H   UNL     1     -43.734  41.968  25.676  1.00  0.00     0.065 H 
ATOM     52  C   UNL     1     -42.320  41.281  28.307  1.00  0.00     0.136 A 
ATOM     53  C   UNL     1     -42.890  39.796  29.972  1.00  0.00     0.120 A 
ATOM     54  N   UNL     1     -42.038  40.717  29.492  1.00  0.00    -0.219 NA
ATOM     55  H   UNL     1     -42.630  39.365  30.934  1.00  0.00     0.106 H 
BRANCH  52  56
ATOM     56  N   UNL     1     -41.422  42.221  27.822  1.00  0.00    -0.383 N 
ATOM     57  H   UNL     1     -41.361  43.011  28.453  1.00  0.00     0.158 HD
ATOM     58  H   UNL     1     -40.545  41.844  27.490  1.00  0.00     0.158 HD
ENDBRANCH  52  56
ENDBRANCH  40  44
ENDBRANCH   1  35
TORSDOF 10
ENDMDL
MODEL 4
REMARK VINA RESULT:      -9.0      1.880     10.673
REMARK SMILES CCc1cc(N(C)C)c2ccc(OCc3cncc(-n4ccc5c(N)ncnc54)c3)cc2n1.O=C(O)C(F)(F)F
REMARK SMILES IDX 14 1 13 4 12 5 3 6 4 7 33 8 5 9 32 11 9 12 31 13 10 14 11 16
REMARK SMILES IDX 2 19 1 22 6 26 7 27 8 31 15 35 16 36 30 37 17 38 19 40 18 42
REMARK SMILES IDX 20 44 21 45 29 46 22 47 23 49 28 50 24 52 27 53 26 54 25 56
REMARK H PARENT 14 2 14 3 4 10 31 15 10 17 11 18 2 20 2 21 1 23 1 24 1 25 7 28
REMARK H PARENT 7 29 7 30 8 32 8 33 8 34 16 39 30 41 18 43 21 48 22 51 27 55
REMARK H PARENT 25 57 25 58
REMARK Flexibility Score: inf
ROOT
ATOM      1  C   UNL     1     -46.040  34.233  26.969  1.00  0.00     0.115 C 
ATOM      2  H   UNL     1     -45.055  33.919  27.335  1.00  0.00     0.076 H 
ATOM      3  H   UNL     1     -45.964  34.263  25.875  1.00  0.00     0.076 H 
ENDROOT
BRANCH   1   4
ATOM      4  O   UNL     1     -47.033  33.251  27.276  1.00  0.00    -0.489 OA
BRANCH   4   5
ATOM      5  C   UNL     1     -47.465  32.419  26.280  1.00  0.00     0.122 A 
ATOM      6  C   UNL     1     -46.542  31.118  21.796  1.00  0.00     0.043 A 
ATOM      7  C   UNL     1     -47.608  30.228  21.754  1.00  0.00    -0.016 A 
ATOM      8  N   UNL     1     -46.250  31.855  22.889  1.00  0.00    -0.253 NA
ATOM      9  C   UNL     1     -48.424  30.081  22.879  1.00  0.00     0.047 A 
ATOM     10  H   UNL     1     -47.804  29.672  20.846  1.00  0.00     0.066 H 
ATOM     11  C   UNL     1     -47.024  31.727  23.979  1.00  0.00     0.076 A 
ATOM     12  C   UNL     1     -48.129  30.855  24.033  1.00  0.00     0.024 A 
ATOM     13  C   UNL     1     -46.721  32.491  25.098  1.00  0.00     0.007 A 
ATOM     14  C   UNL     1     -48.880  30.783  25.227  1.00  0.00    -0.047 A 
ATOM     15  H   UNL     1     -45.868  33.165  25.048  1.00  0.00     0.069 H 
ATOM     16  C   UNL     1     -48.555  31.560  26.341  1.00  0.00    -0.019 A 
ATOM     17  H   UNL     1     -49.731  30.108  25.288  1.00  0.00     0.063 H 
ATOM     18  H   UNL     1     -49.180  31.471  27.221  1.00  0.00     0.066 H 
BRANCH   6  19
ATOM     19  C   UNL     1     -45.636  31.281  20.604  1.00  0.00    -0.013 C 
ATOM     20  H   UNL     1     -45.333  30.292  20.243  1.00  0.00     0.033 H 
ATOM     21  H   UNL     1     -44.717  31.800  20.901  1.00  0.00     0.033 H 
BRANCH  19  22
ATOM     22  C   UNL     1     -46.323  32.040  19.479  1.00  0.00    -0.060 C 
ATOM     23  H   UNL     1     -45.736  31.999  18.555  1.00  0.00     0.023 H 
ATOM     24  H   UNL     1     -46.463  33.094  19.740  1.00  0.00     0.023 H 
ATOM     25  H   UNL     1     -47.307  31.607  19.275  1.00  0.00     0.023 H 
ENDBRANCH  19  22
ENDBRANCH   6  19
BRANCH   9  26
ATOM     26  N   UNL     1     -49.547  29.212  22.880  1.00  0.00    -0.377 N 
BRANCH  26  27
ATOM     27  C   UNL     1     -50.655  29.791  22.113  1.00  0.00     0.006 C 
ATOM     28  H   UNL     1     -51.062  29.073  21.392  1.00  0.00     0.046 H 
ATOM     29  H   UNL     1     -51.465  30.131  22.769  1.00  0.00     0.046 H 
ATOM     30  H   UNL     1     -50.298  30.654  21.540  1.00  0.00     0.046 H 
ENDBRANCH  26  27
BRANCH  26  31
ATOM     31  C   UNL     1     -49.247  27.819  22.544  1.00  0.00     0.006 C 
ATOM     32  H   UNL     1     -48.690  27.752  21.603  1.00  0.00     0.046 H 
ATOM     33  H   UNL     1     -48.615  27.384  23.325  1.00  0.00     0.046 H 
ATOM     34  H   UNL     1     -50.153  27.206  22.470  1.00  0.00     0.046 H 
ENDBRANCH  26  31
ENDBRANCH   9  26
ENDBRANCH   4   5
ENDBRANCH   1   4
BRANCH   1  35
ATOM     35  C   UNL     1     -46.402  35.620  27.433  1.00  0.00     0.010 A 
ATOM     36  C   UNL     1     -47.728  35.947  27.674  1.00  0.00     0.034 A 
ATOM     37  C   UNL     1     -45.438  36.608  27.691  1.00  0.00    -0.028 A 
ATOM     38  N   UNL     1     -48.138  37.155  28.111  1.00  0.00    -0.262 NA
ATOM     39  H   UNL     1     -48.529  35.228  27.518  1.00  0.00     0.084 H 
ATOM     40  C   UNL     1     -45.819  37.879  28.142  1.00  0.00     0.066 A 
ATOM     41  H   UNL     1     -44.396  36.345  27.536  1.00  0.00     0.065 H 
ATOM     42  C   UNL     1     -47.180  38.093  28.332  1.00  0.00     0.051 A 
ATOM     43  H   UNL     1     -47.597  39.036  28.661  1.00  0.00     0.086 H 
BRANCH  40  44
ATOM     44  N   UNL     1     -44.848  38.902  28.385  1.00  0.00    -0.300 N 
ATOM     45  C   UNL     1     -44.062  39.002  29.526  1.00  0.00     0.012 A 
ATOM     46  C   UNL     1     -44.498  39.974  27.556  1.00  0.00     0.150 A 
ATOM     47  C   UNL     1     -43.235  40.097  29.426  1.00  0.00    -0.031 A 
ATOM     48  H   UNL     1     -44.121  38.275  30.323  1.00  0.00     0.082 H 
ATOM     49  C   UNL     1     -43.508  40.721  28.188  1.00  0.00     0.061 A 
ATOM     50  N   UNL     1     -45.025  40.270  26.351  1.00  0.00    -0.218 NA
ATOM     51  H   UNL     1     -42.508  40.406  30.165  1.00  0.00     0.065 H 
ATOM     52  C   UNL     1     -43.022  41.850  27.512  1.00  0.00     0.136 A 
ATOM     53  C   UNL     1     -44.485  41.366  25.800  1.00  0.00     0.120 A 
ATOM     54  N   UNL     1     -43.529  42.162  26.308  1.00  0.00    -0.219 NA
ATOM     55  H   UNL     1     -44.868  41.649  24.825  1.00  0.00     0.106 H 
BRANCH  52  56
ATOM     56  N   UNL     1     -42.045  42.690  28.025  1.00  0.00    -0.383 N 
ATOM     57  H   UNL     1     -41.545  42.234  28.780  1.00  0.00     0.158 HD
ATOM     58  H   UNL     1     -41.478  43.161  27.334  1.00  0.00     0.158 HD
ENDBRANCH  52  56
ENDBRANCH  40  44
ENDBRANCH   1  35
TORSDOF 10
ENDMDL
MODEL 5
REMARK VINA RESULT:      -8.8      2.059     10.623
REMARK SMILES CCc1cc(N(C)C)c2ccc(OCc3cncc(-n4ccc5c(N)ncnc54)c3)cc2n1.O=C(O)C(F)(F)F
REMARK SMILES IDX 14 1 13 4 12 5 3 6 4 7 33 8 5 9 32 11 9 12 31 13 10 14 11 16
REMARK SMILES IDX 2 19 1 22 6 26 7 27 8 31 15 35 16 36 30 37 17 38 19 40 18 42
REMARK SMILES IDX 20 44 21 45 29 46 22 47 23 49 28 50 24 52 27 53 26 54 25 56
REMARK H PARENT 14 2 14 3 4 10 31 15 10 17 11 18 2 20 2 21 1 23 1 24 1 25 7 28
REMARK H PARENT 7 29 7 30 8 32 8 33 8 34 16 39 30 41 18 43 21 48 22 51 27 55
REMARK H PARENT 25 57 25 58
REMARK Flexibility Score: inf
ROOT
ATOM      1  C   UNL     1     -48.307  35.582  26.964  1.00  0.00     0.115 C 
ATOM      2  H   UNL     1     -48.384  35.734  25.880  1.00  0.00     0.076 H 
ATOM      3  H   UNL     1     -49.295  35.823  27.377  1.00  0.00     0.076 H 
ENDROOT
BRANCH   1   4
ATOM      4  O   UNL     1     -48.070  34.205  27.268  1.00  0.00    -0.489 OA
BRANCH   4   5
ATOM      5  C   UNL     1     -47.670  33.369  26.263  1.00  0.00     0.122 A 
ATOM      6  C   UNL     1     -48.678  29.196  24.208  1.00  0.00     0.043 A 
ATOM      7  C   UNL     1     -47.632  29.304  23.300  1.00  0.00    -0.016 A 
ATOM      8  N   UNL     1     -48.940  30.143  25.134  1.00  0.00    -0.253 NA
ATOM      9  C   UNL     1     -46.805  30.430  23.336  1.00  0.00     0.047 A 
ATOM     10  H   UNL     1     -47.460  28.507  22.587  1.00  0.00     0.066 H 
ATOM     11  C   UNL     1     -48.154  31.232  25.184  1.00  0.00     0.076 A 
ATOM     12  C   UNL     1     -47.068  31.430  24.308  1.00  0.00     0.024 A 
ATOM     13  C   UNL     1     -48.427  32.200  26.141  1.00  0.00     0.007 A 
ATOM     14  C   UNL     1     -46.304  32.612  24.432  1.00  0.00    -0.047 A 
ATOM     15  H   UNL     1     -49.265  32.039  26.816  1.00  0.00     0.069 H 
ATOM     16  C   UNL     1     -46.598  33.572  25.403  1.00  0.00    -0.019 A 
ATOM     17  H   UNL     1     -45.467  32.784  23.759  1.00  0.00     0.063 H 
ATOM     18  H   UNL     1     -45.963  34.448  25.456  1.00  0.00     0.066 H 
BRANCH   6  19
ATOM     19  C   UNL     1     -49.595  28.002  24.179  1.00  0.00    -0.013 C 
ATOM     20  H   UNL     1     -49.782  27.717  23.137  1.00  0.00     0.033 H 
ATOM     21  H   UNL     1     -50.568  28.267  24.609  1.00  0.00     0.033 H 
BRANCH  19  22
ATOM     22  C   UNL     1     -48.998  26.819  24.925  1.00  0.00    -0.060 C 
ATOM     23  H   UNL     1     -48.575  26.084  24.232  1.00  0.00     0.023 H 
ATOM     24  H   UNL     1     -49.755  26.311  25.531  1.00  0.00     0.023 H 
ATOM     25  H   UNL     1     -48.199  27.155  25.592  1.00  0.00     0.023 H 
ENDBRANCH  19  22
ENDBRANCH   6  19
BRANCH   9  26
ATOM     26  N   UNL     1     -45.701  30.575  22.455  1.00  0.00    -0.377 N 
BRANCH  26  27
ATOM     27  C   UNL     1     -44.973  29.309  22.317  1.00  0.00     0.006 C 
ATOM     28  H   UNL     1     -44.182  29.218  23.070  1.00  0.00     0.046 H 
ATOM     29  H   UNL     1     -45.644  28.447  22.403  1.00  0.00     0.046 H 
ATOM     30  H   UNL     1     -44.488  29.266  21.335  1.00  0.00     0.046 H 
ENDBRANCH  26  27
BRANCH  26  31
ATOM     31  C   UNL     1     -46.011  31.232  21.183  1.00  0.00     0.006 C 
ATOM     32  H   UNL     1     -45.674  30.627  20.334  1.00  0.00     0.046 H 
ATOM     33  H   UNL     1     -47.096  31.345  21.087  1.00  0.00     0.046 H 
ATOM     34  H   UNL     1     -45.566  32.231  21.113  1.00  0.00     0.046 H 
ENDBRANCH  26  31
ENDBRANCH   9  26
ENDBRANCH   4   5
ENDBRANCH   1   4
BRANCH   1  35
ATOM     35  C   UNL     1     -47.313  36.519  27.599  1.00  0.00     0.010 A 
ATOM     36  C   UNL     1     -46.742  36.199  28.822  1.00  0.00     0.034 A 
ATOM     37  C   UNL     1     -46.884  37.702  26.978  1.00  0.00    -0.028 A 
ATOM     38  N   UNL     1     -45.830  36.966  29.451  1.00  0.00    -0.262 NA
ATOM     39  H   UNL     1     -47.008  35.288  29.353  1.00  0.00     0.084 H 
ATOM     40  C   UNL     1     -45.940  38.533  27.597  1.00  0.00     0.066 A 
ATOM     41  H   UNL     1     -47.303  37.939  26.005  1.00  0.00     0.065 H 
ATOM     42  C   UNL     1     -45.451  38.114  28.830  1.00  0.00     0.051 A 
ATOM     43  H   UNL     1     -44.732  38.678  29.411  1.00  0.00     0.086 H 
BRANCH  40  44
ATOM     44  N   UNL     1     -45.513  39.755  26.985  1.00  0.00    -0.300 N 
ATOM     45  C   UNL     1     -44.228  40.008  26.521  1.00  0.00     0.012 A 
ATOM     46  C   UNL     1     -46.269  40.905  26.735  1.00  0.00     0.150 A 
ATOM     47  C   UNL     1     -44.168  41.274  25.987  1.00  0.00    -0.031 A 
ATOM     48  H   UNL     1     -43.446  39.265  26.575  1.00  0.00     0.082 H 
ATOM     49  C   UNL     1     -45.451  41.852  26.124  1.00  0.00     0.061 A 
ATOM     50  N   UNL     1     -47.568  41.101  27.038  1.00  0.00    -0.218 NA
ATOM     51  H   UNL     1     -43.294  41.730  25.541  1.00  0.00     0.065 H 
ATOM     52  C   UNL     1     -46.030  43.086  25.792  1.00  0.00     0.136 A 
ATOM     53  C   UNL     1     -48.011  42.313  26.675  1.00  0.00     0.120 A 
ATOM     54  N   UNL     1     -47.324  43.302  26.081  1.00  0.00    -0.219 NA
ATOM     55  H   UNL     1     -49.055  42.524  26.890  1.00  0.00     0.106 H 
BRANCH  52  56
ATOM     56  N   UNL     1     -45.333  44.123  25.190  1.00  0.00    -0.383 N 
ATOM     57  H   UNL     1     -45.191  44.883  25.845  1.00  0.00     0.158 HD
ATOM     58  H   UNL     1     -44.527  43.841  24.650  1.00  0.00     0.158 HD
ENDBRANCH  52  56
ENDBRANCH  40  44
ENDBRANCH   1  35
TORSDOF 10
ENDMDL
MODEL 6
REMARK VINA RESULT:      -8.8      0.892      2.585
REMARK SMILES CCc1cc(N(C)C)c2ccc(OCc3cncc(-n4ccc5c(N)ncnc54)c3)cc2n1.O=C(O)C(F)(F)F
REMARK SMILES IDX 14 1 13 4 12 5 3 6 4 7 33 8 5 9 32 11 9 12 31 13 10 14 11 16
REMARK SMILES IDX 2 19 1 22 6 26 7 27 8 31 15 35 16 36 30 37 17 38 19 40 18 42
REMARK SMILES IDX 20 44 21 45 29 46 22 47 23 49 28 50 24 52 27 53 26 54 25 56
REMARK H PARENT 14 2 14 3 4 10 31 15 10 17 11 18 2 20 2 21 1 23 1 24 1 25 7 28
REMARK H PARENT 7 29 7 30 8 32 8 33 8 34 16 39 30 41 18 43 21 48 22 51 27 55
REMARK H PARENT 25 57 25 58
REMARK Flexibility Score: inf
ROOT
ATOM      1  C   UNL     1     -47.171  36.561  26.684  1.00  0.00     0.115 C 
ATOM      2  H   UNL     1     -48.143  36.868  26.279  1.00  0.00     0.076 H 
ATOM      3  H   UNL     1     -46.415  36.945  25.987  1.00  0.00     0.076 H 
ENDROOT
BRANCH   1   4
ATOM      4  O   UNL     1     -46.919  37.197  27.940  1.00  0.00    -0.489 OA
BRANCH   4   5
ATOM      5  C   UNL     1     -45.992  38.200  27.994  1.00  0.00     0.122 A 
ATOM      6  C   UNL     1     -44.576  42.146  25.740  1.00  0.00     0.043 A 
ATOM      7  C   UNL     1     -43.532  42.370  26.629  1.00  0.00    -0.016 A 
ATOM      8  N   UNL     1     -45.417  41.096  25.855  1.00  0.00    -0.253 NA
ATOM      9  C   UNL     1     -43.326  41.479  27.686  1.00  0.00     0.047 A 
ATOM     10  H   UNL     1     -42.880  43.223  26.482  1.00  0.00     0.066 H 
ATOM     11  C   UNL     1     -45.234  40.229  26.864  1.00  0.00     0.076 A 
ATOM     12  C   UNL     1     -44.202  40.369  27.813  1.00  0.00     0.024 A 
ATOM     13  C   UNL     1     -46.100  39.149  26.972  1.00  0.00     0.007 A 
ATOM     14  C   UNL     1     -44.094  39.410  28.844  1.00  0.00    -0.047 A 
ATOM     15  H   UNL     1     -46.892  39.045  26.234  1.00  0.00     0.069 H 
ATOM     16  C   UNL     1     -44.977  38.332  28.934  1.00  0.00    -0.019 A 
ATOM     17  H   UNL     1     -43.307  39.508  29.590  1.00  0.00     0.063 H 
ATOM     18  H   UNL     1     -44.830  37.622  29.739  1.00  0.00     0.066 H 
BRANCH   6  19
ATOM     19  C   UNL     1     -44.831  43.101  24.604  1.00  0.00    -0.013 C 
ATOM     20  H   UNL     1     -45.066  44.091  25.011  1.00  0.00     0.033 H 
ATOM     21  H   UNL     1     -45.712  42.780  24.036  1.00  0.00     0.033 H 
BRANCH  19  22
ATOM     22  C   UNL     1     -43.626  43.208  23.683  1.00  0.00    -0.060 C 
ATOM     23  H   UNL     1     -43.923  43.142  22.630  1.00  0.00     0.023 H 
ATOM     24  H   UNL     1     -42.907  42.405  23.877  1.00  0.00     0.023 H 
ATOM     25  H   UNL     1     -43.117  44.164  23.833  1.00  0.00     0.023 H 
ENDBRANCH  19  22
ENDBRANCH   6  19
BRANCH   9  26
ATOM     26  N   UNL     1     -42.254  41.641  28.602  1.00  0.00    -0.377 N 
BRANCH  26  27
ATOM     27  C   UNL     1     -40.971  41.323  27.966  1.00  0.00     0.006 C 
ATOM     28  H   UNL     1     -41.051  40.438  27.325  1.00  0.00     0.046 H 
ATOM     29  H   UNL     1     -40.600  42.161  27.365  1.00  0.00     0.046 H 
ATOM     30  H   UNL     1     -40.223  41.097  28.734  1.00  0.00     0.046 H 
ENDBRANCH  26  27
BRANCH  26  31
ATOM     31  C   UNL     1     -42.261  42.905  29.341  1.00  0.00     0.006 C 
ATOM     32  H   UNL     1     -43.192  43.457  29.170  1.00  0.00     0.046 H 
ATOM     33  H   UNL     1     -42.201  42.700  30.415  1.00  0.00     0.046 H 
ATOM     34  H   UNL     1     -41.411  43.545  29.078  1.00  0.00     0.046 H 
ENDBRANCH  26  31
ENDBRANCH   9  26
ENDBRANCH   4   5
ENDBRANCH   1   4
BRANCH   1  35
ATOM     35  C   UNL     1     -47.022  35.062  26.727  1.00  0.00     0.010 A 
ATOM     36  C   UNL     1     -46.347  34.463  27.780  1.00  0.00     0.034 A 
ATOM     37  C   UNL     1     -47.590  34.217  25.762  1.00  0.00    -0.028 A 
ATOM     38  N   UNL     1     -46.185  33.131  27.910  1.00  0.00    -0.262 NA
ATOM     39  H   UNL     1     -45.899  35.051  28.577  1.00  0.00     0.084 H 
ATOM     40  C   UNL     1     -47.444  32.826  25.854  1.00  0.00     0.066 A 
ATOM     41  H   UNL     1     -48.148  34.680  24.954  1.00  0.00     0.065 H 
ATOM     42  C   UNL     1     -46.732  32.343  26.947  1.00  0.00     0.051 A 
ATOM     43  H   UNL     1     -46.539  31.291  27.118  1.00  0.00     0.086 H 
BRANCH  40  44
ATOM     44  N   UNL     1     -47.997  31.954  24.862  1.00  0.00    -0.300 N 
ATOM     45  C   UNL     1     -49.276  31.412  24.900  1.00  0.00     0.012 A 
ATOM     46  C   UNL     1     -47.391  31.484  23.692  1.00  0.00     0.150 A 
ATOM     47  C   UNL     1     -49.481  30.628  23.789  1.00  0.00    -0.031 A 
ATOM     48  H   UNL     1     -49.967  31.639  25.699  1.00  0.00     0.082 H 
ATOM     49  C   UNL     1     -48.294  30.661  23.022  1.00  0.00     0.061 A 
ATOM     50  N   UNL     1     -46.141  31.751  23.265  1.00  0.00    -0.218 NA
ATOM     51  H   UNL     1     -50.393  30.095  23.553  1.00  0.00     0.065 H 
ATOM     52  C   UNL     1     -47.869  30.086  21.816  1.00  0.00     0.136 A 
ATOM     53  C   UNL     1     -45.846  31.148  22.104  1.00  0.00     0.120 A 
ATOM     54  N   UNL     1     -46.628  30.340  21.369  1.00  0.00    -0.219 NA
ATOM     55  H   UNL     1     -44.852  31.332  21.709  1.00  0.00     0.106 H 
BRANCH  52  56
ATOM     56  N   UNL     1     -48.658  29.240  21.050  1.00  0.00    -0.383 N 
ATOM     57  H   UNL     1     -49.522  29.025  21.534  1.00  0.00     0.158 HD
ATOM     58  H   UNL     1     -48.742  29.498  20.076  1.00  0.00     0.158 HD
ENDBRANCH  52  56
ENDBRANCH  40  44
ENDBRANCH   1  35
TORSDOF 10
ENDMDL
MODEL 7
REMARK VINA RESULT:      -8.8      2.638     11.365
REMARK SMILES CCc1cc(N(C)C)c2ccc(OCc3cncc(-n4ccc5c(N)ncnc54)c3)cc2n1.O=C(O)C(F)(F)F
REMARK SMILES IDX 14 1 13 4 12 5 3 6 4 7 33 8 5 9 32 11 9 12 31 13 10 14 11 16
REMARK SMILES IDX 2 19 1 22 6 26 7 27 8 31 15 35 16 36 30 37 17 38 19 40 18 42
REMARK SMILES IDX 20 44 21 45 29 46 22 47 23 49 28 50 24 52 27 53 26 54 25 56
REMARK H PARENT 14 2 14 3 4 10 31 15 10 17 11 18 2 20 2 21 1 23 1 24 1 25 7 28
REMARK H PARENT 7 29 7 30 8 32 8 33 8 34 16 39 30 41 18 43 21 48 22 51 27 55
REMARK H PARENT 25 57 25 58
REMARK Flexibility Score: inf
ROOT
ATOM      1  C   UNL     1     -47.420  34.140  26.032  1.00  0.00     0.115 C 
ATOM      2  H   UNL     1     -46.356  33.876  26.018  1.00  0.00     0.076 H 
ATOM      3  H   UNL     1     -47.728  34.219  24.982  1.00  0.00     0.076 H 
ENDROOT
BRANCH   1   4
ATOM      4  O   UNL     1     -48.199  33.084  26.601  1.00  0.00    -0.489 OA
BRANCH   4   5
ATOM      5  C   UNL     1     -48.741  32.145  25.768  1.00  0.00     0.122 A 
ATOM      6  C   UNL     1     -48.937  27.451  25.004  1.00  0.00     0.043 A 
ATOM      7  C   UNL     1     -49.743  27.591  23.881  1.00  0.00    -0.016 A 
ATOM      8  N   UNL     1     -48.505  28.507  25.727  1.00  0.00    -0.253 NA
ATOM      9  C   UNL     1     -50.127  28.869  23.466  1.00  0.00     0.047 A 
ATOM     10  H   UNL     1     -50.049  26.709  23.331  1.00  0.00     0.066 H 
ATOM     11  C   UNL     1     -48.864  29.743  25.342  1.00  0.00     0.076 A 
ATOM     12  C   UNL     1     -49.675  29.987  24.215  1.00  0.00     0.024 A 
ATOM     13  C   UNL     1     -48.413  30.824  26.087  1.00  0.00     0.007 A 
ATOM     14  C   UNL     1     -50.006  31.322  23.894  1.00  0.00    -0.047 A 
ATOM     15  H   UNL     1     -47.784  30.628  26.953  1.00  0.00     0.069 H 
ATOM     16  C   UNL     1     -49.541  32.393  24.659  1.00  0.00    -0.019 A 
ATOM     17  H   UNL     1     -50.638  31.526  23.032  1.00  0.00     0.063 H 
ATOM     18  H   UNL     1     -49.817  33.394  24.350  1.00  0.00     0.066 H 
BRANCH   6  19
ATOM     19  C   UNL     1     -48.525  26.085  25.483  1.00  0.00    -0.013 C 
ATOM     20  H   UNL     1     -47.743  26.190  26.244  1.00  0.00     0.033 H 
ATOM     21  H   UNL     1     -48.081  25.516  24.657  1.00  0.00     0.033 H 
BRANCH  19  22
ATOM     22  C   UNL     1     -49.700  25.320  26.072  1.00  0.00    -0.060 C 
ATOM     23  H   UNL     1     -49.488  24.246  26.129  1.00  0.00     0.023 H 
ATOM     24  H   UNL     1     -50.601  25.451  25.463  1.00  0.00     0.023 H 
ATOM     25  H   UNL     1     -49.917  25.677  27.083  1.00  0.00     0.023 H 
ENDBRANCH  19  22
ENDBRANCH   6  19
BRANCH   9  26
ATOM     26  N   UNL     1     -50.920  29.071  22.306  1.00  0.00    -0.377 N 
BRANCH  26  27
ATOM     27  C   UNL     1     -50.257  28.524  21.118  1.00  0.00     0.006 C 
ATOM     28  H   UNL     1     -50.720  27.583  20.798  1.00  0.00     0.046 H 
ATOM     29  H   UNL     1     -50.279  29.231  20.281  1.00  0.00     0.046 H 
ATOM     30  H   UNL     1     -49.208  28.303  21.348  1.00  0.00     0.046 H 
ENDBRANCH  26  27
BRANCH  26  31
ATOM     31  C   UNL     1     -52.324  28.679  22.444  1.00  0.00     0.006 C 
ATOM     32  H   UNL     1     -52.420  27.756  23.027  1.00  0.00     0.046 H 
ATOM     33  H   UNL     1     -52.868  29.460  22.985  1.00  0.00     0.046 H 
ATOM     34  H   UNL     1     -52.815  28.544  21.473  1.00  0.00     0.046 H 
ENDBRANCH  26  31
ENDBRANCH   9  26
ENDBRANCH   4   5
ENDBRANCH   1   4
BRANCH   1  35
ATOM     35  C   UNL     1     -47.663  35.481  26.675  1.00  0.00     0.010 A 
ATOM     36  C   UNL     1     -48.880  35.747  27.284  1.00  0.00     0.034 A 
ATOM     37  C   UNL     1     -46.680  36.480  26.737  1.00  0.00    -0.028 A 
ATOM     38  N   UNL     1     -49.176  36.909  27.901  1.00  0.00    -0.262 NA
ATOM     39  H   UNL     1     -49.683  35.013  27.296  1.00  0.00     0.084 H 
ATOM     40  C   UNL     1     -46.944  37.705  27.365  1.00  0.00     0.066 A 
ATOM     41  H   UNL     1     -45.714  36.263  26.291  1.00  0.00     0.065 H 
ATOM     42  C   UNL     1     -48.207  37.861  27.926  1.00  0.00     0.051 A 
ATOM     43  H   UNL     1     -48.533  38.767  28.423  1.00  0.00     0.086 H 
BRANCH  40  44
ATOM     44  N   UNL     1     -45.957  38.742  27.414  1.00  0.00    -0.300 N 
ATOM     45  C   UNL     1     -45.789  39.729  26.450  1.00  0.00     0.012 A 
ATOM     46  C   UNL     1     -44.995  38.971  28.403  1.00  0.00     0.150 A 
ATOM     47  C   UNL     1     -44.758  40.563  26.816  1.00  0.00    -0.031 A 
ATOM     48  H   UNL     1     -46.428  39.792  25.582  1.00  0.00     0.082 H 
ATOM     49  C   UNL     1     -44.245  40.088  28.045  1.00  0.00     0.061 A 
ATOM     50  N   UNL     1     -44.792  38.241  29.518  1.00  0.00    -0.218 NA
ATOM     51  H   UNL     1     -44.417  41.425  26.258  1.00  0.00     0.065 H 
ATOM     52  C   UNL     1     -43.219  40.482  28.916  1.00  0.00     0.136 A 
ATOM     53  C   UNL     1     -43.788  38.711  30.272  1.00  0.00     0.120 A 
ATOM     54  N   UNL     1     -43.000  39.772  30.034  1.00  0.00    -0.219 NA
ATOM     55  H   UNL     1     -43.582  38.164  31.188  1.00  0.00     0.106 H 
BRANCH  52  56
ATOM     56  N   UNL     1     -42.387  41.568  28.681  1.00  0.00    -0.383 N 
ATOM     57  H   UNL     1     -41.456  41.386  29.037  1.00  0.00     0.158 HD
ATOM     58  H   UNL     1     -42.442  41.955  27.750  1.00  0.00     0.158 HD
ENDBRANCH  52  56
ENDBRANCH  40  44
ENDBRANCH   1  35
TORSDOF 10
ENDMDL
