MODEL 1
REMARK VINA RESULT:     -10.6      0.000      0.000
REMARK SMILES CN(Cc1cc2ccc(CNC(=O)c3cc(=O)n4ccccc4n3)cc2[nH]1)CC1CCC1
REMARK SMILES IDX 4 1 5 2 6 3 7 4 8 5 9 6 25 7 26 8 27 9 3 15 2 18 1 19 28 23
REMARK SMILES IDX 29 26 30 27 32 28 31 30 10 37 11 40 12 41 13 43 14 44 15 45
REMARK SMILES IDX 24 46 16 47 23 49 17 50 18 51 22 52 19 53 21 54 20 56
REMARK H PARENT 5 10 7 11 8 12 25 13 27 14 3 16 3 17 1 20 1 21 1 22 28 24
REMARK H PARENT 28 25 29 29 30 31 30 32 32 33 32 34 31 35 31 36 10 38 10 39
REMARK H PARENT 11 42 15 48 22 55 19 57 21 58 20 59
REMARK Flexibility Score: inf
ROOT
ATOM      1  C   UNL     1     -48.529  31.325  24.910  1.00  0.00     0.030 A 
ATOM      2  C   UNL     1     -47.256  31.844  24.778  1.00  0.00    -0.032 A 
ATOM      3  C   UNL     1     -47.214  33.096  25.448  1.00  0.00    -0.000 A 
ATOM      4  C   UNL     1     -46.217  34.068  25.647  1.00  0.00    -0.052 A 
ATOM      5  C   UNL     1     -46.521  35.222  26.381  1.00  0.00    -0.057 A 
ATOM      6  C   UNL     1     -47.800  35.428  26.913  1.00  0.00    -0.027 A 
ATOM      7  C   UNL     1     -48.800  34.456  26.730  1.00  0.00    -0.033 A 
ATOM      8  C   UNL     1     -48.478  33.311  25.993  1.00  0.00     0.046 A 
ATOM      9  N   UNL     1     -49.251  32.221  25.663  1.00  0.00    -0.357 N 
ATOM     10  H   UNL     1     -46.438  31.373  24.247  1.00  0.00     0.065 H 
ATOM     11  H   UNL     1     -45.221  33.927  25.239  1.00  0.00     0.063 H 
ATOM     12  H   UNL     1     -45.740  35.965  26.535  1.00  0.00     0.063 H 
ATOM     13  H   UNL     1     -49.793  34.592  27.151  1.00  0.00     0.065 H 
ATOM     14  H   UNL     1     -50.219  32.107  25.929  1.00  0.00     0.166 HD
ENDROOT
BRANCH   1  15
ATOM     15  C   UNL     1     -49.124  30.045  24.419  1.00  0.00     0.038 C 
ATOM     16  H   UNL     1     -49.491  30.182  23.393  1.00  0.00     0.050 H 
ATOM     17  H   UNL     1     -50.023  29.821  25.007  1.00  0.00     0.050 H 
BRANCH  15  18
ATOM     18  N   UNL     1     -48.223  28.884  24.454  1.00  0.00    -0.300 NA
BRANCH  18  19
ATOM     19  C   UNL     1     -48.069  28.268  23.137  1.00  0.00    -0.013 C 
ATOM     20  H   UNL     1     -47.306  28.762  22.527  1.00  0.00     0.039 H 
ATOM     21  H   UNL     1     -47.806  27.208  23.230  1.00  0.00     0.039 H 
ATOM     22  H   UNL     1     -49.013  28.291  22.582  1.00  0.00     0.039 H 
ENDBRANCH  18  19
BRANCH  18  23
ATOM     23  C   UNL     1     -48.579  27.910  25.496  1.00  0.00     0.001 C 
ATOM     24  H   UNL     1     -48.137  28.226  26.450  1.00  0.00     0.043 H 
ATOM     25  H   UNL     1     -49.666  27.875  25.650  1.00  0.00     0.043 H 
BRANCH  23  26
ATOM     26  C   UNL     1     -48.065  26.503  25.166  1.00  0.00    -0.029 C 
ATOM     27  C   UNL     1     -48.359  25.429  26.247  1.00  0.00    -0.049 C 
ATOM     28  C   UNL     1     -46.558  26.221  25.413  1.00  0.00    -0.049 C 
ATOM     29  H   UNL     1     -48.407  26.177  24.175  1.00  0.00     0.032 H 
ATOM     30  C   UNL     1     -46.940  25.668  26.799  1.00  0.00    -0.053 C 
ATOM     31  H   UNL     1     -48.501  24.423  25.835  1.00  0.00     0.027 H 
ATOM     32  H   UNL     1     -49.176  25.643  26.940  1.00  0.00     0.027 H 
ATOM     33  H   UNL     1     -45.889  27.085  25.422  1.00  0.00     0.027 H 
ATOM     34  H   UNL     1     -46.142  25.462  24.740  1.00  0.00     0.027 H 
ATOM     35  H   UNL     1     -46.399  24.773  27.118  1.00  0.00     0.027 H 
ATOM     36  H   UNL     1     -46.896  26.414  27.600  1.00  0.00     0.027 H 
ENDBRANCH  23  26
ENDBRANCH  18  23
ENDBRANCH  15  18
ENDBRANCH   1  15
BRANCH   6  37
ATOM     37  C   UNL     1     -48.096  36.661  27.725  1.00  0.00     0.043 C 
ATOM     38  H   UNL     1     -48.325  36.397  28.764  1.00  0.00     0.054 H 
ATOM     39  H   UNL     1     -48.974  37.188  27.332  1.00  0.00     0.054 H 
BRANCH  37  40
ATOM     40  N   UNL     1     -46.978  37.567  27.704  1.00  0.00    -0.347 N 
ATOM     41  C   UNL     1     -46.142  37.716  28.780  1.00  0.00     0.270 C 
ATOM     42  H   UNL     1     -46.877  38.233  26.944  1.00  0.00     0.164 HD
ATOM     43  O   UNL     1     -46.210  37.047  29.803  1.00  0.00    -0.268 OA
BRANCH  41  44
ATOM     44  C   UNL     1     -45.125  38.813  28.572  1.00  0.00     0.136 A 
ATOM     45  C   UNL     1     -44.220  38.977  29.540  1.00  0.00     0.035 A 
ATOM     46  N   UNL     1     -45.188  39.564  27.420  1.00  0.00    -0.225 NA
ATOM     47  C   UNL     1     -43.212  40.031  29.378  1.00  0.00     0.258 A 
ATOM     48  H   UNL     1     -44.182  38.380  30.441  1.00  0.00     0.071 H 
ATOM     49  C   UNL     1     -44.294  40.495  27.281  1.00  0.00     0.140 A 
ATOM     50  O   UNL     1     -42.374  40.190  30.264  1.00  0.00    -0.269 OA
ATOM     51  N   UNL     1     -43.297  40.774  28.209  1.00  0.00    -0.268 N 
ATOM     52  C   UNL     1     -44.324  41.334  26.048  1.00  0.00    -0.019 A 
ATOM     53  C   UNL     1     -42.376  41.792  27.984  1.00  0.00     0.014 A 
ATOM     54  C   UNL     1     -43.416  42.302  25.877  1.00  0.00    -0.057 A 
ATOM     55  H   UNL     1     -45.097  41.124  25.320  1.00  0.00     0.066 H 
ATOM     56  C   UNL     1     -42.408  42.541  26.875  1.00  0.00    -0.045 A 
ATOM     57  H   UNL     1     -41.623  41.955  28.752  1.00  0.00     0.082 H 
ATOM     58  H   UNL     1     -43.421  42.923  24.988  1.00  0.00     0.062 H 
ATOM     59  H   UNL     1     -41.684  43.333  26.711  1.00  0.00     0.064 H 
ENDBRANCH  41  44
ENDBRANCH  37  40
ENDBRANCH   6  37
TORSDOF 8
ENDMDL
MODEL 2
REMARK VINA RESULT:      -9.8      1.510      2.196
REMARK SMILES CN(Cc1cc2ccc(CNC(=O)c3cc(=O)n4ccccc4n3)cc2[nH]1)CC1CCC1
REMARK SMILES IDX 4 1 5 2 6 3 7 4 8 5 9 6 25 7 26 8 27 9 3 15 2 18 1 19 28 23
REMARK SMILES IDX 29 26 30 27 32 28 31 30 10 37 11 40 12 41 13 43 14 44 15 45
REMARK SMILES IDX 24 46 16 47 23 49 17 50 18 51 22 52 19 53 21 54 20 56
REMARK H PARENT 5 10 7 11 8 12 25 13 27 14 3 16 3 17 1 20 1 21 1 22 28 24
REMARK H PARENT 28 25 29 29 30 31 30 32 32 33 32 34 31 35 31 36 10 38 10 39
REMARK H PARENT 11 42 15 48 22 55 19 57 21 58 20 59
REMARK Flexibility Score: inf
ROOT
ATOM      1  C   UNL     1     -48.038  30.783  24.663  1.00  0.00     0.030 A 
ATOM      2  C   UNL     1     -46.938  31.542  24.316  1.00  0.00    -0.032 A 
ATOM      3  C   UNL     1     -47.016  32.782  25.007  1.00  0.00    -0.000 A 
ATOM      4  C   UNL     1     -46.208  33.932  25.050  1.00  0.00    -0.052 A 
ATOM      5  C   UNL     1     -46.588  35.008  25.864  1.00  0.00    -0.057 A 
ATOM      6  C   UNL     1     -47.761  34.959  26.628  1.00  0.00    -0.027 A 
ATOM      7  C   UNL     1     -48.569  33.809  26.601  1.00  0.00    -0.033 A 
ATOM      8  C   UNL     1     -48.174  32.746  25.781  1.00  0.00     0.046 A 
ATOM      9  N   UNL     1     -48.768  31.524  25.564  1.00  0.00    -0.357 N 
ATOM     10  H   UNL     1     -46.158  31.239  23.629  1.00  0.00     0.065 H 
ATOM     11  H   UNL     1     -45.298  33.988  24.461  1.00  0.00     0.063 H 
ATOM     12  H   UNL     1     -45.952  35.891  25.895  1.00  0.00     0.063 H 
ATOM     13  H   UNL     1     -49.473  33.749  27.201  1.00  0.00     0.065 H 
ATOM     14  H   UNL     1     -49.628  31.222  25.999  1.00  0.00     0.166 HD
ENDROOT
BRANCH   1  15
ATOM     15  C   UNL     1     -48.454  29.409  24.249  1.00  0.00     0.038 C 
ATOM     16  H   UNL     1     -48.211  29.258  23.188  1.00  0.00     0.050 H 
ATOM     17  H   UNL     1     -49.548  29.338  24.295  1.00  0.00     0.050 H 
BRANCH  15  18
ATOM     18  N   UNL     1     -47.866  28.315  25.035  1.00  0.00    -0.300 NA
BRANCH  18  19
ATOM     19  C   UNL     1     -47.201  27.326  24.189  1.00  0.00    -0.013 C 
ATOM     20  H   UNL     1     -46.112  27.445  24.179  1.00  0.00     0.039 H 
ATOM     21  H   UNL     1     -47.435  26.308  24.520  1.00  0.00     0.039 H 
ATOM     22  H   UNL     1     -47.558  27.391  23.156  1.00  0.00     0.039 H 
ENDBRANCH  18  19
BRANCH  18  23
ATOM     23  C   UNL     1     -48.818  27.707  25.976  1.00  0.00     0.001 C 
ATOM     24  H   UNL     1     -48.276  27.373  26.871  1.00  0.00     0.043 H 
ATOM     25  H   UNL     1     -49.562  28.440  26.315  1.00  0.00     0.043 H 
BRANCH  23  26
ATOM     26  C   UNL     1     -49.536  26.497  25.363  1.00  0.00    -0.029 C 
ATOM     27  C   UNL     1     -50.918  26.808  24.729  1.00  0.00    -0.049 C 
ATOM     28  C   UNL     1     -50.288  25.550  26.337  1.00  0.00    -0.049 C 
ATOM     29  H   UNL     1     -48.884  25.963  24.660  1.00  0.00     0.032 H 
ATOM     30  C   UNL     1     -51.570  26.354  26.049  1.00  0.00    -0.053 C 
ATOM     31  H   UNL     1     -51.163  26.163  23.878  1.00  0.00     0.027 H 
ATOM     32  H   UNL     1     -51.103  27.848  24.446  1.00  0.00     0.027 H 
ATOM     33  H   UNL     1     -49.959  25.550  27.379  1.00  0.00     0.027 H 
ATOM     34  H   UNL     1     -50.335  24.512  25.985  1.00  0.00     0.027 H 
ATOM     35  H   UNL     1     -52.486  25.765  25.946  1.00  0.00     0.027 H 
ATOM     36  H   UNL     1     -51.750  27.168  26.758  1.00  0.00     0.027 H 
ENDBRANCH  23  26
ENDBRANCH  18  23
ENDBRANCH  15  18
ENDBRANCH   1  15
BRANCH   6  37
ATOM     37  C   UNL     1     -48.134  36.114  27.519  1.00  0.00     0.043 C 
ATOM     38  H   UNL     1     -48.283  35.776  28.552  1.00  0.00     0.054 H 
ATOM     39  H   UNL     1     -49.078  36.570  27.197  1.00  0.00     0.054 H 
BRANCH  37  40
ATOM     40  N   UNL     1     -47.113  37.128  27.497  1.00  0.00    -0.347 N 
ATOM     41  C   UNL     1     -46.317  37.382  28.584  1.00  0.00     0.270 C 
ATOM     42  H   UNL     1     -47.065  37.786  26.725  1.00  0.00     0.164 HD
ATOM     43  O   UNL     1     -46.337  36.729  29.620  1.00  0.00    -0.268 OA
BRANCH  41  44
ATOM     44  C   UNL     1     -45.411  38.571  28.370  1.00  0.00     0.136 A 
ATOM     45  C   UNL     1     -45.667  39.329  27.301  1.00  0.00     0.035 A 
ATOM     46  N   UNL     1     -44.395  38.799  29.270  1.00  0.00    -0.225 NA
ATOM     47  C   UNL     1     -44.811  40.496  27.056  1.00  0.00     0.258 A 
ATOM     48  H   UNL     1     -46.469  39.137  26.600  1.00  0.00     0.071 H 
ATOM     49  C   UNL     1     -43.641  39.833  29.049  1.00  0.00     0.140 A 
ATOM     50  O   UNL     1     -45.039  41.200  26.073  1.00  0.00    -0.269 OA
ATOM     51  N   UNL     1     -43.796  40.705  27.977  1.00  0.00    -0.268 N 
ATOM     52  C   UNL     1     -42.528  40.120  29.999  1.00  0.00    -0.019 A 
ATOM     53  C   UNL     1     -42.942  41.791  27.811  1.00  0.00     0.014 A 
ATOM     54  C   UNL     1     -41.734  41.178  29.797  1.00  0.00    -0.057 A 
ATOM     55  H   UNL     1     -42.400  39.447  30.837  1.00  0.00     0.066 H 
ATOM     56  C   UNL     1     -41.945  42.044  28.667  1.00  0.00    -0.045 A 
ATOM     57  H   UNL     1     -43.121  42.432  26.950  1.00  0.00     0.082 H 
ATOM     58  H   UNL     1     -40.919  41.404  30.476  1.00  0.00     0.062 H 
ATOM     59  H   UNL     1     -41.286  42.894  28.527  1.00  0.00     0.064 H 
ENDBRANCH  41  44
ENDBRANCH  37  40
ENDBRANCH   6  37
TORSDOF 8
ENDMDL
MODEL 3
REMARK VINA RESULT:      -9.7      1.985      2.959
REMARK SMILES CN(Cc1cc2ccc(CNC(=O)c3cc(=O)n4ccccc4n3)cc2[nH]1)CC1CCC1
REMARK SMILES IDX 4 1 5 2 6 3 7 4 8 5 9 6 25 7 26 8 27 9 3 15 2 18 1 19 28 23
REMARK SMILES IDX 29 26 30 27 32 28 31 30 10 37 11 40 12 41 13 43 14 44 15 45
REMARK SMILES IDX 24 46 16 47 23 49 17 50 18 51 22 52 19 53 21 54 20 56
REMARK H PARENT 5 10 7 11 8 12 25 13 27 14 3 16 3 17 1 20 1 21 1 22 28 24
REMARK H PARENT 28 25 29 29 30 31 30 32 32 33 32 34 31 35 31 36 10 38 10 39
REMARK H PARENT 11 42 15 48 22 55 19 57 21 58 20 59
REMARK Flexibility Score: inf
ROOT
ATOM      1  C   UNL     1     -46.669  32.475  24.907  1.00  0.00     0.030 A 
ATOM      2  C   UNL     1     -47.862  33.131  25.143  1.00  0.00    -0.032 A 
ATOM      3  C   UNL     1     -47.662  34.048  26.210  1.00  0.00    -0.000 A 
ATOM      4  C   UNL     1     -48.490  34.966  26.882  1.00  0.00    -0.052 A 
ATOM      5  C   UNL     1     -47.955  35.741  27.920  1.00  0.00    -0.057 A 
ATOM      6  C   UNL     1     -46.615  35.610  28.305  1.00  0.00    -0.027 A 
ATOM      7  C   UNL     1     -45.776  34.705  27.632  1.00  0.00    -0.033 A 
ATOM      8  C   UNL     1     -46.328  33.939  26.599  1.00  0.00     0.046 A 
ATOM      9  N   UNL     1     -45.747  32.990  25.789  1.00  0.00    -0.357 N 
ATOM     10  H   UNL     1     -48.787  32.963  24.607  1.00  0.00     0.065 H 
ATOM     11  H   UNL     1     -49.532  35.077  26.599  1.00  0.00     0.063 H 
ATOM     12  H   UNL     1     -48.603  36.453  28.428  1.00  0.00     0.063 H 
ATOM     13  H   UNL     1     -44.730  34.604  27.907  1.00  0.00     0.065 H 
ATOM     14  H   UNL     1     -44.780  32.706  25.847  1.00  0.00     0.166 HD
ENDROOT
BRANCH   1  15
ATOM     15  C   UNL     1     -46.306  31.429  23.905  1.00  0.00     0.038 C 
ATOM     16  H   UNL     1     -45.396  30.907  24.234  1.00  0.00     0.050 H 
ATOM     17  H   UNL     1     -46.019  31.918  22.966  1.00  0.00     0.050 H 
BRANCH  15  18
ATOM     18  N   UNL     1     -47.354  30.436  23.630  1.00  0.00    -0.300 NA
BRANCH  18  19
ATOM     19  C   UNL     1     -46.837  29.069  23.657  1.00  0.00    -0.013 C 
ATOM     20  H   UNL     1     -46.380  28.772  22.707  1.00  0.00     0.039 H 
ATOM     21  H   UNL     1     -46.093  28.948  24.453  1.00  0.00     0.039 H 
ATOM     22  H   UNL     1     -47.634  28.354  23.886  1.00  0.00     0.039 H 
ENDBRANCH  18  19
BRANCH  18  23
ATOM     23  C   UNL     1     -48.119  30.729  22.409  1.00  0.00     0.001 C 
ATOM     24  H   UNL     1     -47.648  31.569  21.882  1.00  0.00     0.043 H 
ATOM     25  H   UNL     1     -48.102  29.876  21.718  1.00  0.00     0.043 H 
BRANCH  23  26
ATOM     26  C   UNL     1     -49.573  31.104  22.720  1.00  0.00    -0.029 C 
ATOM     27  C   UNL     1     -50.157  30.456  24.003  1.00  0.00    -0.049 C 
ATOM     28  C   UNL     1     -50.684  30.354  21.935  1.00  0.00    -0.049 C 
ATOM     29  H   UNL     1     -49.710  32.193  22.724  1.00  0.00     0.032 H 
ATOM     30  C   UNL     1     -50.774  29.362  23.110  1.00  0.00    -0.053 C 
ATOM     31  H   UNL     1     -50.904  31.080  24.507  1.00  0.00     0.027 H 
ATOM     32  H   UNL     1     -49.435  30.105  24.746  1.00  0.00     0.027 H 
ATOM     33  H   UNL     1     -50.400  29.917  20.975  1.00  0.00     0.027 H 
ATOM     34  H   UNL     1     -51.594  30.949  21.795  1.00  0.00     0.027 H 
ATOM     35  H   UNL     1     -51.783  29.042  23.384  1.00  0.00     0.027 H 
ATOM     36  H   UNL     1     -50.141  28.477  22.991  1.00  0.00     0.027 H 
ENDBRANCH  23  26
ENDBRANCH  18  23
ENDBRANCH  15  18
ENDBRANCH   1  15
BRANCH   6  37
ATOM     37  C   UNL     1     -46.054  36.475  29.403  1.00  0.00     0.043 C 
ATOM     38  H   UNL     1     -45.385  35.895  30.052  1.00  0.00     0.054 H 
ATOM     39  H   UNL     1     -46.854  36.865  30.043  1.00  0.00     0.054 H 
BRANCH  37  40
ATOM     40  N   UNL     1     -45.329  37.590  28.855  1.00  0.00    -0.347 N 
ATOM     41  C   UNL     1     -44.521  38.384  29.629  1.00  0.00     0.270 C 
ATOM     42  H   UNL     1     -45.523  37.910  27.911  1.00  0.00     0.164 HD
ATOM     43  O   UNL     1     -44.275  38.172  30.810  1.00  0.00    -0.268 OA
BRANCH  41  44
ATOM     44  C   UNL     1     -43.970  39.564  28.865  1.00  0.00     0.136 A 
ATOM     45  C   UNL     1     -42.955  40.220  29.434  1.00  0.00     0.035 A 
ATOM     46  N   UNL     1     -44.534  39.888  27.652  1.00  0.00    -0.225 NA
ATOM     47  C   UNL     1     -42.389  41.373  28.724  1.00  0.00     0.258 A 
ATOM     48  H   UNL     1     -42.522  39.955  30.389  1.00  0.00     0.071 H 
ATOM     49  C   UNL     1     -44.029  40.909  27.028  1.00  0.00     0.140 A 
ATOM     50  O   UNL     1     -41.454  41.984  29.241  1.00  0.00    -0.269 OA
ATOM     51  N   UNL     1     -42.974  41.680  27.505  1.00  0.00    -0.268 N 
ATOM     52  C   UNL     1     -44.608  41.297  25.710  1.00  0.00    -0.019 A 
ATOM     53  C   UNL     1     -42.492  42.760  26.773  1.00  0.00     0.014 A 
ATOM     54  C   UNL     1     -44.109  42.345  25.044  1.00  0.00    -0.057 A 
ATOM     55  H   UNL     1     -45.430  40.703  25.331  1.00  0.00     0.066 H 
ATOM     56  C   UNL     1     -43.015  43.103  25.590  1.00  0.00    -0.045 A 
ATOM     57  H   UNL     1     -41.664  43.319  27.206  1.00  0.00     0.082 H 
ATOM     58  H   UNL     1     -44.517  42.643  24.084  1.00  0.00     0.062 H 
ATOM     59  H   UNL     1     -42.631  43.949  25.029  1.00  0.00     0.064 H 
ENDBRANCH  41  44
ENDBRANCH  37  40
ENDBRANCH   6  37
TORSDOF 8
ENDMDL
MODEL 4
REMARK VINA RESULT:      -9.6      3.025     11.774
REMARK SMILES CN(Cc1cc2ccc(CNC(=O)c3cc(=O)n4ccccc4n3)cc2[nH]1)CC1CCC1
REMARK SMILES IDX 4 1 5 2 6 3 7 4 8 5 9 6 25 7 26 8 27 9 3 15 2 18 1 19 28 23
REMARK SMILES IDX 29 26 30 27 32 28 31 30 10 37 11 40 12 41 13 43 14 44 15 45
REMARK SMILES IDX 24 46 16 47 23 49 17 50 18 51 22 52 19 53 21 54 20 56
REMARK H PARENT 5 10 7 11 8 12 25 13 27 14 3 16 3 17 1 20 1 21 1 22 28 24
REMARK H PARENT 28 25 29 29 30 31 30 32 32 33 32 34 31 35 31 36 10 38 10 39
REMARK H PARENT 11 42 15 48 22 55 19 57 21 58 20 59
REMARK Flexibility Score: inf
ROOT
ATOM      1  C   UNL     1     -46.312  37.918  28.218  1.00  0.00     0.030 A 
ATOM      2  C   UNL     1     -45.405  36.920  27.915  1.00  0.00    -0.032 A 
ATOM      3  C   UNL     1     -46.122  35.813  27.386  1.00  0.00    -0.000 A 
ATOM      4  C   UNL     1     -45.752  34.539  26.918  1.00  0.00    -0.052 A 
ATOM      5  C   UNL     1     -46.742  33.666  26.449  1.00  0.00    -0.057 A 
ATOM      6  C   UNL     1     -48.093  34.036  26.447  1.00  0.00    -0.027 A 
ATOM      7  C   UNL     1     -48.472  35.311  26.901  1.00  0.00    -0.033 A 
ATOM      8  C   UNL     1     -47.469  36.169  27.367  1.00  0.00     0.046 A 
ATOM      9  N   UNL     1     -47.556  37.450  27.864  1.00  0.00    -0.357 N 
ATOM     10  H   UNL     1     -44.335  36.979  28.064  1.00  0.00     0.065 H 
ATOM     11  H   UNL     1     -44.709  34.235  26.917  1.00  0.00     0.063 H 
ATOM     12  H   UNL     1     -46.444  32.685  26.082  1.00  0.00     0.063 H 
ATOM     13  H   UNL     1     -49.514  35.621  26.890  1.00  0.00     0.065 H 
ATOM     14  H   UNL     1     -48.419  37.965  27.965  1.00  0.00     0.166 HD
ENDROOT
BRANCH   1  15
ATOM     15  C   UNL     1     -46.113  39.287  28.782  1.00  0.00     0.038 C 
ATOM     16  H   UNL     1     -45.550  39.217  29.723  1.00  0.00     0.050 H 
ATOM     17  H   UNL     1     -47.088  39.697  29.075  1.00  0.00     0.050 H 
BRANCH  15  18
ATOM     18  N   UNL     1     -45.438  40.239  27.889  1.00  0.00    -0.300 NA
BRANCH  18  19
ATOM     19  C   UNL     1     -45.898  40.118  26.507  1.00  0.00    -0.013 C 
ATOM     20  H   UNL     1     -45.124  39.729  25.837  1.00  0.00     0.039 H 
ATOM     21  H   UNL     1     -46.774  39.461  26.443  1.00  0.00     0.039 H 
ATOM     22  H   UNL     1     -46.226  41.087  26.118  1.00  0.00     0.039 H 
ENDBRANCH  18  19
BRANCH  18  23
ATOM     23  C   UNL     1     -43.973  40.197  28.003  1.00  0.00     0.001 C 
ATOM     24  H   UNL     1     -43.700  39.810  28.994  1.00  0.00     0.043 H 
ATOM     25  H   UNL     1     -43.538  39.509  27.267  1.00  0.00     0.043 H 
BRANCH  23  26
ATOM     26  C   UNL     1     -43.345  41.587  27.836  1.00  0.00    -0.029 C 
ATOM     27  C   UNL     1     -42.179  41.659  26.814  1.00  0.00    -0.049 C 
ATOM     28  C   UNL     1     -42.320  42.038  28.912  1.00  0.00    -0.049 C 
ATOM     29  H   UNL     1     -44.109  42.346  27.625  1.00  0.00     0.032 H 
ATOM     30  C   UNL     1     -41.200  41.510  27.994  1.00  0.00    -0.053 C 
ATOM     31  H   UNL     1     -42.103  42.627  26.305  1.00  0.00     0.027 H 
ATOM     32  H   UNL     1     -42.137  40.865  26.063  1.00  0.00     0.027 H 
ATOM     33  H   UNL     1     -42.388  41.557  29.891  1.00  0.00     0.027 H 
ATOM     34  H   UNL     1     -42.290  43.124  29.056  1.00  0.00     0.027 H 
ATOM     35  H   UNL     1     -40.299  42.127  27.943  1.00  0.00     0.027 H 
ATOM     36  H   UNL     1     -40.910  40.475  28.202  1.00  0.00     0.027 H 
ENDBRANCH  23  26
ENDBRANCH  18  23
ENDBRANCH  15  18
ENDBRANCH   1  15
BRANCH   6  37
ATOM     37  C   UNL     1     -49.137  33.093  25.910  1.00  0.00     0.043 C 
ATOM     38  H   UNL     1     -49.521  33.446  24.945  1.00  0.00     0.054 H 
ATOM     39  H   UNL     1     -49.997  33.032  26.588  1.00  0.00     0.054 H 
BRANCH  37  40
ATOM     40  N   UNL     1     -48.596  31.770  25.747  1.00  0.00    -0.347 N 
ATOM     41  C   UNL     1     -48.817  31.027  24.616  1.00  0.00     0.270 C 
ATOM     42  H   UNL     1     -48.168  31.295  26.536  1.00  0.00     0.164 HD
ATOM     43  O   UNL     1     -49.405  31.441  23.625  1.00  0.00    -0.268 OA
BRANCH  41  44
ATOM     44  C   UNL     1     -48.261  29.628  24.727  1.00  0.00     0.136 A 
ATOM     45  C   UNL     1     -47.269  29.313  23.891  1.00  0.00     0.035 A 
ATOM     46  N   UNL     1     -48.800  28.775  25.665  1.00  0.00    -0.225 NA
ATOM     47  C   UNL     1     -46.700  27.962  23.967  1.00  0.00     0.258 A 
ATOM     48  H   UNL     1     -46.856  29.992  23.158  1.00  0.00     0.071 H 
ATOM     49  C   UNL     1     -48.292  27.582  25.728  1.00  0.00     0.140 A 
ATOM     50  O   UNL     1     -45.785  27.662  23.200  1.00  0.00    -0.269 OA
ATOM     51  N   UNL     1     -47.258  27.123  24.919  1.00  0.00    -0.268 N 
ATOM     52  C   UNL     1     -48.843  26.625  26.730  1.00  0.00    -0.019 A 
ATOM     53  C   UNL     1     -46.771  25.826  25.050  1.00  0.00     0.014 A 
ATOM     54  C   UNL     1     -48.341  25.387  26.818  1.00  0.00    -0.057 A 
ATOM     55  H   UNL     1     -49.648  26.974  27.364  1.00  0.00     0.066 H 
ATOM     56  C   UNL     1     -47.270  24.972  25.952  1.00  0.00    -0.045 A 
ATOM     57  H   UNL     1     -45.962  25.533  24.385  1.00  0.00     0.082 H 
ATOM     58  H   UNL     1     -48.728  24.677  27.540  1.00  0.00     0.062 H 
ATOM     59  H   UNL     1     -46.881  23.963  26.044  1.00  0.00     0.064 H 
ENDBRANCH  41  44
ENDBRANCH  37  40
ENDBRANCH   6  37
TORSDOF 8
ENDMDL
MODEL 5
REMARK VINA RESULT:      -9.5      1.866      2.386
REMARK SMILES CN(Cc1cc2ccc(CNC(=O)c3cc(=O)n4ccccc4n3)cc2[nH]1)CC1CCC1
REMARK SMILES IDX 4 1 5 2 6 3 7 4 8 5 9 6 25 7 26 8 27 9 3 15 2 18 1 19 28 23
REMARK SMILES IDX 29 26 30 27 32 28 31 30 10 37 11 40 12 41 13 43 14 44 15 45
REMARK SMILES IDX 24 46 16 47 23 49 17 50 18 51 22 52 19 53 21 54 20 56
REMARK H PARENT 5 10 7 11 8 12 25 13 27 14 3 16 3 17 1 20 1 21 1 22 28 24
REMARK H PARENT 28 25 29 29 30 31 30 32 32 33 32 34 31 35 31 36 10 38 10 39
REMARK H PARENT 11 42 15 48 22 55 19 57 21 58 20 59
REMARK Flexibility Score: inf
ROOT
ATOM      1  C   UNL     1     -48.311  31.729  25.643  1.00  0.00     0.030 A 
ATOM      2  C   UNL     1     -47.023  32.228  25.619  1.00  0.00    -0.032 A 
ATOM      3  C   UNL     1     -47.057  33.573  26.077  1.00  0.00    -0.000 A 
ATOM      4  C   UNL     1     -46.083  34.570  26.262  1.00  0.00    -0.052 A 
ATOM      5  C   UNL     1     -46.470  35.827  26.747  1.00  0.00    -0.057 A 
ATOM      6  C   UNL     1     -47.811  36.108  27.043  1.00  0.00    -0.027 A 
ATOM      7  C   UNL     1     -48.790  35.113  26.874  1.00  0.00    -0.033 A 
ATOM      8  C   UNL     1     -48.384  33.865  26.387  1.00  0.00     0.046 A 
ATOM      9  N   UNL     1     -49.119  32.732  26.127  1.00  0.00    -0.357 N 
ATOM     10  H   UNL     1     -46.145  31.682  25.299  1.00  0.00     0.065 H 
ATOM     11  H   UNL     1     -45.040  34.371  26.034  1.00  0.00     0.063 H 
ATOM     12  H   UNL     1     -45.707  36.589  26.893  1.00  0.00     0.063 H 
ATOM     13  H   UNL     1     -49.831  35.310  27.115  1.00  0.00     0.065 H 
ATOM     14  H   UNL     1     -50.118  32.656  26.261  1.00  0.00     0.166 HD
ENDROOT
BRANCH   1  15
ATOM     15  C   UNL     1     -48.850  30.383  25.283  1.00  0.00     0.038 C 
ATOM     16  H   UNL     1     -49.892  30.483  24.950  1.00  0.00     0.050 H 
ATOM     17  H   UNL     1     -48.908  29.768  26.190  1.00  0.00     0.050 H 
BRANCH  15  18
ATOM     18  N   UNL     1     -48.086  29.659  24.257  1.00  0.00    -0.300 NA
BRANCH  18  19
ATOM     19  C   UNL     1     -48.483  30.042  22.904  1.00  0.00    -0.013 C 
ATOM     20  H   UNL     1     -48.460  29.200  22.203  1.00  0.00     0.039 H 
ATOM     21  H   UNL     1     -49.493  30.469  22.899  1.00  0.00     0.039 H 
ATOM     22  H   UNL     1     -47.828  30.826  22.511  1.00  0.00     0.039 H 
ENDBRANCH  18  19
BRANCH  18  23
ATOM     23  C   UNL     1     -48.090  28.203  24.457  1.00  0.00     0.001 C 
ATOM     24  H   UNL     1     -48.473  27.715  23.551  1.00  0.00     0.043 H 
ATOM     25  H   UNL     1     -47.072  27.822  24.612  1.00  0.00     0.043 H 
BRANCH  23  26
ATOM     26  C   UNL     1     -48.974  27.789  25.641  1.00  0.00    -0.029 C 
ATOM     27  C   UNL     1     -48.231  27.053  26.787  1.00  0.00    -0.049 C 
ATOM     28  C   UNL     1     -49.824  26.500  25.476  1.00  0.00    -0.049 C 
ATOM     29  H   UNL     1     -49.553  28.640  26.021  1.00  0.00     0.032 H 
ATOM     30  C   UNL     1     -48.684  25.721  26.160  1.00  0.00    -0.053 C 
ATOM     31  H   UNL     1     -48.663  27.238  27.778  1.00  0.00     0.027 H 
ATOM     32  H   UNL     1     -47.149  27.203  26.844  1.00  0.00     0.027 H 
ATOM     33  H   UNL     1     -50.056  26.189  24.455  1.00  0.00     0.027 H 
ATOM     34  H   UNL     1     -50.754  26.514  26.058  1.00  0.00     0.027 H 
ATOM     35  H   UNL     1     -48.996  24.947  26.867  1.00  0.00     0.027 H 
ATOM     36  H   UNL     1     -47.960  25.291  25.460  1.00  0.00     0.027 H 
ENDBRANCH  23  26
ENDBRANCH  18  23
ENDBRANCH  15  18
ENDBRANCH   1  15
BRANCH   6  37
ATOM     37  C   UNL     1     -48.200  37.454  27.592  1.00  0.00     0.043 C 
ATOM     38  H   UNL     1     -48.312  37.413  28.682  1.00  0.00     0.054 H 
ATOM     39  H   UNL     1     -49.166  37.779  27.188  1.00  0.00     0.054 H 
BRANCH  37  40
ATOM     40  N   UNL     1     -47.214  38.448  27.257  1.00  0.00    -0.347 N 
ATOM     41  C   UNL     1     -47.180  39.674  27.870  1.00  0.00     0.270 C 
ATOM     42  H   UNL     1     -46.617  38.319  26.446  1.00  0.00     0.164 HD
ATOM     43  O   UNL     1     -47.909  40.001  28.798  1.00  0.00    -0.268 OA
BRANCH  41  44
ATOM     44  C   UNL     1     -46.144  40.592  27.265  1.00  0.00     0.136 A 
ATOM     45  C   UNL     1     -46.590  41.498  26.392  1.00  0.00     0.035 A 
ATOM     46  N   UNL     1     -44.828  40.443  27.641  1.00  0.00    -0.225 NA
ATOM     47  C   UNL     1     -45.617  42.412  25.781  1.00  0.00     0.258 A 
ATOM     48  H   UNL     1     -47.627  41.604  26.105  1.00  0.00     0.071 H 
ATOM     49  C   UNL     1     -43.971  41.253  27.098  1.00  0.00     0.140 A 
ATOM     50  O   UNL     1     -46.018  43.251  24.976  1.00  0.00    -0.269 OA
ATOM     51  N   UNL     1     -44.298  42.243  26.176  1.00  0.00    -0.268 N 
ATOM     52  C   UNL     1     -42.534  41.129  27.475  1.00  0.00    -0.019 A 
ATOM     53  C   UNL     1     -43.317  43.070  25.639  1.00  0.00     0.014 A 
ATOM     54  C   UNL     1     -41.627  41.950  26.932  1.00  0.00    -0.057 A 
ATOM     55  H   UNL     1     -42.271  40.362  28.193  1.00  0.00     0.066 H 
ATOM     56  C   UNL     1     -42.029  42.954  25.983  1.00  0.00    -0.045 A 
ATOM     57  H   UNL     1     -43.643  43.822  24.924  1.00  0.00     0.082 H 
ATOM     58  H   UNL     1     -40.577  41.876  27.194  1.00  0.00     0.062 H 
ATOM     59  H   UNL     1     -41.273  43.606  25.557  1.00  0.00     0.064 H 
ENDBRANCH  41  44
ENDBRANCH  37  40
ENDBRANCH   6  37
TORSDOF 8
ENDMDL
MODEL 6
REMARK VINA RESULT:      -9.4      1.803      2.593
REMARK SMILES CN(Cc1cc2ccc(CNC(=O)c3cc(=O)n4ccccc4n3)cc2[nH]1)CC1CCC1
REMARK SMILES IDX 4 1 5 2 6 3 7 4 8 5 9 6 25 7 26 8 27 9 3 15 2 18 1 19 28 23
REMARK SMILES IDX 29 26 30 27 32 28 31 30 10 37 11 40 12 41 13 43 14 44 15 45
REMARK SMILES IDX 24 46 16 47 23 49 17 50 18 51 22 52 19 53 21 54 20 56
REMARK H PARENT 5 10 7 11 8 12 25 13 27 14 3 16 3 17 1 20 1 21 1 22 28 24
REMARK H PARENT 28 25 29 29 30 31 30 32 32 33 32 34 31 35 31 36 10 38 10 39
REMARK H PARENT 11 42 15 48 22 55 19 57 21 58 20 59
REMARK Flexibility Score: inf
ROOT
ATOM      1  C   UNL     1     -46.560  31.257  23.815  1.00  0.00     0.030 A 
ATOM      2  C   UNL     1     -47.824  31.725  24.114  1.00  0.00    -0.032 A 
ATOM      3  C   UNL     1     -47.710  32.671  25.168  1.00  0.00    -0.000 A 
ATOM      4  C   UNL     1     -48.632  33.458  25.883  1.00  0.00    -0.052 A 
ATOM      5  C   UNL     1     -48.167  34.313  26.891  1.00  0.00    -0.057 A 
ATOM      6  C   UNL     1     -46.804  34.391  27.205  1.00  0.00    -0.027 A 
ATOM      7  C   UNL     1     -45.874  33.618  26.488  1.00  0.00    -0.033 A 
ATOM      8  C   UNL     1     -46.357  32.769  25.486  1.00  0.00     0.046 A 
ATOM      9  N   UNL     1     -45.682  31.913  24.646  1.00  0.00    -0.357 N 
ATOM     10  H   UNL     1     -48.740  31.415  23.627  1.00  0.00     0.065 H 
ATOM     11  H   UNL     1     -49.692  33.407  25.655  1.00  0.00     0.063 H 
ATOM     12  H   UNL     1     -48.888  34.923  27.433  1.00  0.00     0.063 H 
ATOM     13  H   UNL     1     -44.811  33.680  26.707  1.00  0.00     0.065 H 
ATOM     14  H   UNL     1     -44.681  31.779  24.653  1.00  0.00     0.166 HD
ENDROOT
BRANCH   1  15
ATOM     15  C   UNL     1     -46.094  30.269  22.795  1.00  0.00     0.038 C 
ATOM     16  H   UNL     1     -45.042  30.017  22.982  1.00  0.00     0.050 H 
ATOM     17  H   UNL     1     -46.092  30.749  21.808  1.00  0.00     0.050 H 
BRANCH  15  18
ATOM     18  N   UNL     1     -46.878  29.028  22.724  1.00  0.00    -0.300 NA
BRANCH  18  19
ATOM     19  C   UNL     1     -48.207  29.248  22.156  1.00  0.00    -0.013 C 
ATOM     20  H   UNL     1     -48.971  29.415  22.923  1.00  0.00     0.039 H 
ATOM     21  H   UNL     1     -48.204  30.108  21.477  1.00  0.00     0.039 H 
ATOM     22  H   UNL     1     -48.519  28.392  21.549  1.00  0.00     0.039 H 
ENDBRANCH  18  19
BRANCH  18  23
ATOM     23  C   UNL     1     -46.921  28.300  24.000  1.00  0.00     0.001 C 
ATOM     24  H   UNL     1     -46.337  27.375  23.907  1.00  0.00     0.043 H 
ATOM     25  H   UNL     1     -46.457  28.885  24.805  1.00  0.00     0.043 H 
BRANCH  23  26
ATOM     26  C   UNL     1     -48.355  27.930  24.401  1.00  0.00    -0.029 C 
ATOM     27  C   UNL     1     -48.862  28.597  25.708  1.00  0.00    -0.049 C 
ATOM     28  C   UNL     1     -48.564  26.566  25.114  1.00  0.00    -0.049 C 
ATOM     29  H   UNL     1     -49.055  28.094  23.572  1.00  0.00     0.032 H 
ATOM     30  C   UNL     1     -48.467  27.311  26.459  1.00  0.00    -0.053 C 
ATOM     31  H   UNL     1     -49.941  28.788  25.711  1.00  0.00     0.027 H 
ATOM     32  H   UNL     1     -48.344  29.506  26.026  1.00  0.00     0.027 H 
ATOM     33  H   UNL     1     -47.803  25.800  24.947  1.00  0.00     0.027 H 
ATOM     34  H   UNL     1     -49.551  26.126  24.929  1.00  0.00     0.027 H 
ATOM     35  H   UNL     1     -49.164  26.982  27.235  1.00  0.00     0.027 H 
ATOM     36  H   UNL     1     -47.455  27.335  26.879  1.00  0.00     0.027 H 
ENDBRANCH  23  26
ENDBRANCH  18  23
ENDBRANCH  15  18
ENDBRANCH   1  15
BRANCH   6  37
ATOM     37  C   UNL     1     -46.324  35.339  28.271  1.00  0.00     0.043 C 
ATOM     38  H   UNL     1     -45.388  34.982  28.718  1.00  0.00     0.054 H 
ATOM     39  H   UNL     1     -47.054  35.416  29.086  1.00  0.00     0.054 H 
BRANCH  37  40
ATOM     40  N   UNL     1     -46.114  36.655  27.728  1.00  0.00    -0.347 N 
ATOM     41  C   UNL     1     -45.385  37.609  28.392  1.00  0.00     0.270 C 
ATOM     42  H   UNL     1     -46.634  36.958  26.910  1.00  0.00     0.164 HD
ATOM     43  O   UNL     1     -44.785  37.410  29.441  1.00  0.00    -0.268 OA
BRANCH  41  44
ATOM     44  C   UNL     1     -45.412  38.946  27.691  1.00  0.00     0.136 A 
ATOM     45  C   UNL     1     -46.594  39.347  27.220  1.00  0.00     0.035 A 
ATOM     46  N   UNL     1     -44.239  39.658  27.581  1.00  0.00    -0.225 NA
ATOM     47  C   UNL     1     -46.665  40.643  26.532  1.00  0.00     0.258 A 
ATOM     48  H   UNL     1     -47.509  38.777  27.312  1.00  0.00     0.071 H 
ATOM     49  C   UNL     1     -44.306  40.803  26.973  1.00  0.00     0.140 A 
ATOM     50  O   UNL     1     -47.751  41.021  26.094  1.00  0.00    -0.269 OA
ATOM     51  N   UNL     1     -45.471  41.341  26.435  1.00  0.00    -0.268 N 
ATOM     52  C   UNL     1     -43.060  41.610  26.831  1.00  0.00    -0.019 A 
ATOM     53  C   UNL     1     -45.457  42.577  25.796  1.00  0.00     0.014 A 
ATOM     54  C   UNL     1     -43.099  42.794  26.208  1.00  0.00    -0.057 A 
ATOM     55  H   UNL     1     -42.149  41.200  27.247  1.00  0.00     0.066 H 
ATOM     56  C   UNL     1     -44.336  43.297  25.673  1.00  0.00    -0.045 A 
ATOM     57  H   UNL     1     -46.404  42.937  25.398  1.00  0.00     0.082 H 
ATOM     58  H   UNL     1     -42.204  43.396  26.095  1.00  0.00     0.062 H 
ATOM     59  H   UNL     1     -44.339  44.260  25.172  1.00  0.00     0.064 H 
ENDBRANCH  41  44
ENDBRANCH  37  40
ENDBRANCH   6  37
TORSDOF 8
ENDMDL
MODEL 7
REMARK VINA RESULT:      -9.3      2.019      2.662
REMARK SMILES CN(Cc1cc2ccc(CNC(=O)c3cc(=O)n4ccccc4n3)cc2[nH]1)CC1CCC1
REMARK SMILES IDX 4 1 5 2 6 3 7 4 8 5 9 6 25 7 26 8 27 9 3 15 2 18 1 19 28 23
REMARK SMILES IDX 29 26 30 27 32 28 31 30 10 37 11 40 12 41 13 43 14 44 15 45
REMARK SMILES IDX 24 46 16 47 23 49 17 50 18 51 22 52 19 53 21 54 20 56
REMARK H PARENT 5 10 7 11 8 12 25 13 27 14 3 16 3 17 1 20 1 21 1 22 28 24
REMARK H PARENT 28 25 29 29 30 31 30 32 32 33 32 34 31 35 31 36 10 38 10 39
REMARK H PARENT 11 42 15 48 22 55 19 57 21 58 20 59
REMARK Flexibility Score: inf
ROOT
ATOM      1  C   UNL     1     -48.340  32.431  25.866  1.00  0.00     0.030 A 
ATOM      2  C   UNL     1     -46.998  32.662  26.100  1.00  0.00    -0.032 A 
ATOM      3  C   UNL     1     -46.855  33.986  26.598  1.00  0.00    -0.000 A 
ATOM      4  C   UNL     1     -45.757  34.768  26.999  1.00  0.00    -0.052 A 
ATOM      5  C   UNL     1     -45.976  36.075  27.454  1.00  0.00    -0.057 A 
ATOM      6  C   UNL     1     -47.266  36.618  27.509  1.00  0.00    -0.027 A 
ATOM      7  C   UNL     1     -48.371  35.839  27.122  1.00  0.00    -0.033 A 
ATOM      8  C   UNL     1     -48.133  34.537  26.669  1.00  0.00     0.046 A 
ATOM      9  N   UNL     1     -49.013  33.574  26.232  1.00  0.00    -0.357 N 
ATOM     10  H   UNL     1     -46.200  31.953  25.925  1.00  0.00     0.065 H 
ATOM     11  H   UNL     1     -44.750  34.365  26.959  1.00  0.00     0.063 H 
ATOM     12  H   UNL     1     -45.120  36.670  27.769  1.00  0.00     0.063 H 
ATOM     13  H   UNL     1     -49.380  36.239  27.175  1.00  0.00     0.065 H 
ATOM     14  H   UNL     1     -50.014  33.699  26.176  1.00  0.00     0.166 HD
ENDROOT
BRANCH   1  15
ATOM     15  C   UNL     1     -49.054  31.221  25.358  1.00  0.00     0.038 C 
ATOM     16  H   UNL     1     -49.961  31.053  25.955  1.00  0.00     0.050 H 
ATOM     17  H   UNL     1     -48.433  30.335  25.545  1.00  0.00     0.050 H 
BRANCH  15  18
ATOM     18  N   UNL     1     -49.418  31.261  23.935  1.00  0.00    -0.300 NA
BRANCH  18  19
ATOM     19  C   UNL     1     -50.858  31.116  23.732  1.00  0.00    -0.013 C 
ATOM     20  H   UNL     1     -51.196  30.078  23.830  1.00  0.00     0.039 H 
ATOM     21  H   UNL     1     -51.418  31.731  24.446  1.00  0.00     0.039 H 
ATOM     22  H   UNL     1     -51.152  31.474  22.740  1.00  0.00     0.039 H 
ENDBRANCH  18  19
BRANCH  18  23
ATOM     23  C   UNL     1     -48.634  30.329  23.113  1.00  0.00     0.001 C 
ATOM     24  H   UNL     1     -49.186  29.386  23.011  1.00  0.00     0.043 H 
ATOM     25  H   UNL     1     -48.492  30.721  22.097  1.00  0.00     0.043 H 
BRANCH  23  26
ATOM     26  C   UNL     1     -47.266  30.025  23.737  1.00  0.00    -0.029 C 
ATOM     27  C   UNL     1     -46.088  30.863  23.172  1.00  0.00    -0.049 C 
ATOM     28  C   UNL     1     -46.512  28.769  23.221  1.00  0.00    -0.049 C 
ATOM     29  H   UNL     1     -47.308  30.082  24.833  1.00  0.00     0.032 H 
ATOM     30  C   UNL     1     -45.766  29.685  22.232  1.00  0.00    -0.053 C 
ATOM     31  H   UNL     1     -45.299  31.060  23.908  1.00  0.00     0.027 H 
ATOM     32  H   UNL     1     -46.348  31.802  22.678  1.00  0.00     0.027 H 
ATOM     33  H   UNL     1     -47.118  27.983  22.766  1.00  0.00     0.027 H 
ATOM     34  H   UNL     1     -45.857  28.315  23.975  1.00  0.00     0.027 H 
ATOM     35  H   UNL     1     -44.704  29.467  22.093  1.00  0.00     0.027 H 
ATOM     36  H   UNL     1     -46.246  29.758  21.250  1.00  0.00     0.027 H 
ENDBRANCH  23  26
ENDBRANCH  18  23
ENDBRANCH  15  18
ENDBRANCH   1  15
BRANCH   6  37
ATOM     37  C   UNL     1     -47.481  38.014  28.031  1.00  0.00     0.043 C 
ATOM     38  H   UNL     1     -47.502  38.020  29.127  1.00  0.00     0.054 H 
ATOM     39  H   UNL     1     -48.445  38.414  27.694  1.00  0.00     0.054 H 
BRANCH  37  40
ATOM     40  N   UNL     1     -46.441  38.896  27.574  1.00  0.00    -0.347 N 
ATOM     41  C   UNL     1     -45.355  39.206  28.352  1.00  0.00     0.270 C 
ATOM     42  H   UNL     1     -46.567  39.434  26.721  1.00  0.00     0.164 HD
ATOM     43  O   UNL     1     -45.128  38.706  29.447  1.00  0.00    -0.268 OA
BRANCH  41  44
ATOM     44  C   UNL     1     -44.468  40.248  27.715  1.00  0.00     0.136 A 
ATOM     45  C   UNL     1     -43.368  40.588  28.392  1.00  0.00     0.035 A 
ATOM     46  N   UNL     1     -44.836  40.777  26.498  1.00  0.00    -0.225 NA
ATOM     47  C   UNL     1     -42.476  41.597  27.808  1.00  0.00     0.258 A 
ATOM     48  H   UNL     1     -43.090  40.165  29.348  1.00  0.00     0.071 H 
ATOM     49  C   UNL     1     -44.044  41.669  25.986  1.00  0.00     0.140 A 
ATOM     50  O   UNL     1     -41.460  41.916  28.424  1.00  0.00    -0.269 OA
ATOM     51  N   UNL     1     -42.868  42.113  26.582  1.00  0.00    -0.268 N 
ATOM     52  C   UNL     1     -44.403  42.269  24.668  1.00  0.00    -0.019 A 
ATOM     53  C   UNL     1     -42.075  43.075  25.965  1.00  0.00     0.014 A 
ATOM     54  C   UNL     1     -43.606  43.191  24.115  1.00  0.00    -0.057 A 
ATOM     55  H   UNL     1     -45.315  41.928  24.197  1.00  0.00     0.066 H 
ATOM     56  C   UNL     1     -42.402  43.609  24.783  1.00  0.00    -0.045 A 
ATOM     57  H   UNL     1     -41.170  43.377  26.488  1.00  0.00     0.082 H 
ATOM     58  H   UNL     1     -43.849  43.639  23.158  1.00  0.00     0.062 H 
ATOM     59  H   UNL     1     -41.774  44.359  24.312  1.00  0.00     0.064 H 
ENDBRANCH  41  44
ENDBRANCH  37  40
ENDBRANCH   6  37
TORSDOF 8
ENDMDL
