MODEL 1
REMARK VINA RESULT:     -10.2      0.000      0.000
REMARK SMILES CCc1cc(N2CCN(C)CC2)c2ccc(OCc3cncc(-n4ccc5c(N)ncnc54)c3)cc2n1
REMARK SMILES IDX 18 1 17 4 16 5 3 6 4 7 37 8 5 9 36 11 13 12 35 13 14 14
REMARK SMILES IDX 15 16 2 19 1 22 6 26 7 27 12 28 8 29 11 32 9 35 10 40 19 44
REMARK SMILES IDX 20 45 34 46 21 47 23 49 22 51 24 53 25 54 33 55 26 56 27 58
REMARK SMILES IDX 32 59 28 61 31 62 30 63 29 65
REMARK H PARENT 18 2 18 3 4 10 35 15 14 17 15 18 2 20 2 21 1 23 1 24 1 25 7 30
REMARK H PARENT 7 31 12 33 12 34 8 36 8 37 11 38 11 39 10 41 10 42 10 43 20 48
REMARK H PARENT 34 50 22 52 25 57 26 60 31 64 29 66 29 67
REMARK Flexibility Score: inf
ROOT
ATOM      1  C   UNL     1     -48.098  36.414  27.463  1.00  0.00     0.115 C 
ATOM      2  H   UNL     1     -48.192  36.933  26.501  1.00  0.00     0.076 H 
ATOM      3  H   UNL     1     -49.100  36.418  27.910  1.00  0.00     0.076 H 
ENDROOT
BRANCH   1   4
ATOM      4  O   UNL     1     -47.200  37.206  28.248  1.00  0.00    -0.489 OA
BRANCH   4   5
ATOM      5  C   UNL     1     -46.630  38.311  27.676  1.00  0.00     0.122 A 
ATOM      6  C   UNL     1     -42.945  41.282  28.137  1.00  0.00     0.043 A 
ATOM      7  C   UNL     1     -43.381  42.105  27.110  1.00  0.00    -0.016 A 
ATOM      8  N   UNL     1     -43.623  40.177  28.514  1.00  0.00    -0.253 NA
ATOM      9  C   UNL     1     -44.554  41.790  26.418  1.00  0.00     0.048 A 
ATOM     10  H   UNL     1     -42.819  42.993  26.841  1.00  0.00     0.066 H 
ATOM     11  C   UNL     1     -44.748  39.854  27.855  1.00  0.00     0.076 A 
ATOM     12  C   UNL     1     -45.272  40.624  26.795  1.00  0.00     0.024 A 
ATOM     13  C   UNL     1     -45.426  38.714  28.260  1.00  0.00     0.007 A 
ATOM     14  C   UNL     1     -46.474  40.189  26.186  1.00  0.00    -0.047 A 
ATOM     15  H   UNL     1     -45.020  38.135  29.087  1.00  0.00     0.069 H 
ATOM     16  C   UNL     1     -47.148  39.046  26.621  1.00  0.00    -0.019 A 
ATOM     17  H   UNL     1     -46.905  40.753  25.367  1.00  0.00     0.063 H 
ATOM     18  H   UNL     1     -48.071  38.773  26.123  1.00  0.00     0.066 H 
BRANCH   6  19
ATOM     19  C   UNL     1     -41.697  41.617  28.909  1.00  0.00    -0.013 C 
ATOM     20  H   UNL     1     -40.821  41.411  28.284  1.00  0.00     0.033 H 
ATOM     21  H   UNL     1     -41.675  42.690  29.135  1.00  0.00     0.033 H 
BRANCH  19  22
ATOM     22  C   UNL     1     -41.600  40.811  30.195  1.00  0.00    -0.060 C 
ATOM     23  H   UNL     1     -41.143  39.832  30.018  1.00  0.00     0.023 H 
ATOM     24  H   UNL     1     -40.995  41.333  30.944  1.00  0.00     0.023 H 
ATOM     25  H   UNL     1     -42.598  40.649  30.617  1.00  0.00     0.023 H 
ENDBRANCH  19  22
ENDBRANCH   6  19
BRANCH   9  26
ATOM     26  N   UNL     1     -44.931  42.675  25.406  1.00  0.00    -0.368 N 
ATOM     27  C   UNL     1     -43.968  42.890  24.319  1.00  0.00     0.031 C 
ATOM     28  C   UNL     1     -45.786  43.815  25.776  1.00  0.00     0.031 C 
ATOM     29  C   UNL     1     -44.631  43.714  23.189  1.00  0.00     0.016 C 
ATOM     30  H   UNL     1     -43.649  41.925  23.906  1.00  0.00     0.051 H 
ATOM     31  H   UNL     1     -43.074  43.412  24.675  1.00  0.00     0.051 H 
ATOM     32  C   UNL     1     -45.348  45.120  25.068  1.00  0.00     0.016 C 
ATOM     33  H   UNL     1     -45.793  43.986  26.860  1.00  0.00     0.051 H 
ATOM     34  H   UNL     1     -46.816  43.575  25.483  1.00  0.00     0.051 H 
ATOM     35  N   UNL     1     -45.225  45.007  23.600  1.00  0.00    -0.303 NA
ATOM     36  H   UNL     1     -43.909  43.845  22.373  1.00  0.00     0.045 H 
ATOM     37  H   UNL     1     -45.450  43.115  22.771  1.00  0.00     0.045 H 
ATOM     38  H   UNL     1     -46.075  45.907  25.304  1.00  0.00     0.045 H 
ATOM     39  H   UNL     1     -44.388  45.437  25.498  1.00  0.00     0.045 H 
BRANCH  35  40
ATOM     40  C   UNL     1     -44.495  46.144  23.048  1.00  0.00    -0.013 C 
ATOM     41  H   UNL     1     -43.774  46.556  23.762  1.00  0.00     0.039 H 
ATOM     42  H   UNL     1     -43.956  45.850  22.140  1.00  0.00     0.039 H 
ATOM     43  H   UNL     1     -45.188  46.941  22.756  1.00  0.00     0.039 H 
ENDBRANCH  35  40
ENDBRANCH   9  26
ENDBRANCH   4   5
ENDBRANCH   1   4
BRANCH   1  44
ATOM     44  C   UNL     1     -47.627  35.010  27.167  1.00  0.00     0.010 A 
ATOM     45  C   UNL     1     -46.601  34.453  27.921  1.00  0.00     0.034 A 
ATOM     46  C   UNL     1     -48.198  34.203  26.174  1.00  0.00    -0.028 A 
ATOM     47  N   UNL     1     -46.117  33.205  27.737  1.00  0.00    -0.262 NA
ATOM     48  H   UNL     1     -46.122  35.009  28.723  1.00  0.00     0.084 H 
ATOM     49  C   UNL     1     -47.704  32.920  25.924  1.00  0.00     0.066 A 
ATOM     50  H   UNL     1     -49.041  34.595  25.615  1.00  0.00     0.065 H 
ATOM     51  C   UNL     1     -46.674  32.470  26.743  1.00  0.00     0.051 A 
ATOM     52  H   UNL     1     -46.211  31.496  26.628  1.00  0.00     0.086 H 
BRANCH  49  53
ATOM     53  N   UNL     1     -48.216  32.107  24.867  1.00  0.00    -0.300 N 
ATOM     54  C   UNL     1     -49.556  31.806  24.664  1.00  0.00     0.012 A 
ATOM     55  C   UNL     1     -47.489  31.450  23.871  1.00  0.00     0.150 A 
ATOM     56  C   UNL     1     -49.680  31.002  23.554  1.00  0.00    -0.031 A 
ATOM     57  H   UNL     1     -50.331  32.215  25.296  1.00  0.00     0.082 H 
ATOM     58  C   UNL     1     -48.378  30.761  23.053  1.00  0.00     0.061 A 
ATOM     59  N   UNL     1     -46.148  31.435  23.730  1.00  0.00    -0.218 NA
ATOM     60  H   UNL     1     -50.610  30.629  23.146  1.00  0.00     0.065 H 
ATOM     61  C   UNL     1     -47.833  30.027  21.990  1.00  0.00     0.136 A 
ATOM     62  C   UNL     1     -45.740  30.699  22.687  1.00  0.00     0.120 A 
ATOM     63  N   UNL     1     -46.499  30.004  21.823  1.00  0.00    -0.219 NA
ATOM     64  H   UNL     1     -44.666  30.657  22.523  1.00  0.00     0.106 H 
BRANCH  61  65
ATOM     65  N   UNL     1     -48.596  29.288  21.097  1.00  0.00    -0.383 N 
ATOM     66  H   UNL     1     -48.077  28.626  20.539  1.00  0.00     0.158 HD
ATOM     67  H   UNL     1     -49.237  29.893  20.597  1.00  0.00     0.158 HD
ENDBRANCH  61  65
ENDBRANCH  49  53
ENDBRANCH   1  44
TORSDOF 9
ENDMDL
MODEL 2
REMARK VINA RESULT:      -9.4      2.679     12.046
REMARK SMILES CCc1cc(N2CCN(C)CC2)c2ccc(OCc3cncc(-n4ccc5c(N)ncnc54)c3)cc2n1
REMARK SMILES IDX 18 1 17 4 16 5 3 6 4 7 37 8 5 9 36 11 13 12 35 13 14 14
REMARK SMILES IDX 15 16 2 19 1 22 6 26 7 27 12 28 8 29 11 32 9 35 10 40 19 44
REMARK SMILES IDX 20 45 34 46 21 47 23 49 22 51 24 53 25 54 33 55 26 56 27 58
REMARK SMILES IDX 32 59 28 61 31 62 30 63 29 65
REMARK H PARENT 18 2 18 3 4 10 35 15 14 17 15 18 2 20 2 21 1 23 1 24 1 25 7 30
REMARK H PARENT 7 31 12 33 12 34 8 36 8 37 11 38 11 39 10 41 10 42 10 43 20 48
REMARK H PARENT 34 50 22 52 25 57 26 60 31 64 29 66 29 67
REMARK Flexibility Score: inf
ROOT
ATOM      1  C   UNL     1     -47.531  35.276  26.253  1.00  0.00     0.115 C 
ATOM      2  H   UNL     1     -48.310  35.828  25.713  1.00  0.00     0.076 H 
ATOM      3  H   UNL     1     -46.782  34.993  25.503  1.00  0.00     0.076 H 
ENDROOT
BRANCH   1   4
ATOM      4  O   UNL     1     -48.173  34.110  26.780  1.00  0.00    -0.489 OA
BRANCH   4   5
ATOM      5  C   UNL     1     -47.929  32.902  26.186  1.00  0.00     0.122 A 
ATOM      6  C   UNL     1     -46.204  30.973  22.196  1.00  0.00     0.043 A 
ATOM      7  C   UNL     1     -46.522  29.684  22.590  1.00  0.00    -0.016 A 
ATOM      8  N   UNL     1     -46.465  32.050  22.968  1.00  0.00    -0.253 NA
ATOM      9  C   UNL     1     -47.126  29.465  23.833  1.00  0.00     0.048 A 
ATOM     10  H   UNL     1     -46.310  28.841  21.940  1.00  0.00     0.066 H 
ATOM     11  C   UNL     1     -47.037  31.859  24.168  1.00  0.00     0.076 A 
ATOM     12  C   UNL     1     -47.397  30.586  24.660  1.00  0.00     0.024 A 
ATOM     13  C   UNL     1     -47.296  32.980  24.943  1.00  0.00     0.007 A 
ATOM     14  C   UNL     1     -48.006  30.513  25.937  1.00  0.00    -0.047 A 
ATOM     15  H   UNL     1     -47.027  33.957  24.548  1.00  0.00     0.069 H 
ATOM     16  C   UNL     1     -48.271  31.657  26.692  1.00  0.00    -0.019 A 
ATOM     17  H   UNL     1     -48.294  29.553  26.349  1.00  0.00     0.063 H 
ATOM     18  H   UNL     1     -48.752  31.537  27.656  1.00  0.00     0.066 H 
BRANCH   6  19
ATOM     19  C   UNL     1     -45.576  31.231  20.853  1.00  0.00    -0.013 C 
ATOM     20  H   UNL     1     -44.690  31.864  20.984  1.00  0.00     0.033 H 
ATOM     21  H   UNL     1     -45.222  30.287  20.419  1.00  0.00     0.033 H 
BRANCH  19  22
ATOM     22  C   UNL     1     -46.546  31.911  19.901  1.00  0.00    -0.060 C 
ATOM     23  H   UNL     1     -47.585  31.666  20.148  1.00  0.00     0.023 H 
ATOM     24  H   UNL     1     -46.441  33.001  19.939  1.00  0.00     0.023 H 
ATOM     25  H   UNL     1     -46.356  31.588  18.871  1.00  0.00     0.023 H 
ENDBRANCH  19  22
ENDBRANCH   6  19
BRANCH   9  26
ATOM     26  N   UNL     1     -47.426  28.139  24.149  1.00  0.00    -0.368 N 
ATOM     27  C   UNL     1     -48.546  27.913  25.071  1.00  0.00     0.031 C 
ATOM     28  C   UNL     1     -46.312  27.178  24.205  1.00  0.00     0.031 C 
ATOM     29  C   UNL     1     -48.875  26.402  25.134  1.00  0.00     0.016 C 
ATOM     30  H   UNL     1     -49.435  28.450  24.718  1.00  0.00     0.051 H 
ATOM     31  H   UNL     1     -48.314  28.279  26.077  1.00  0.00     0.051 H 
ATOM     32  C   UNL     1     -46.444  26.208  25.403  1.00  0.00     0.016 C 
ATOM     33  H   UNL     1     -45.339  27.683  24.264  1.00  0.00     0.051 H 
ATOM     34  H   UNL     1     -46.316  26.601  23.272  1.00  0.00     0.051 H 
ATOM     35  N   UNL     1     -47.745  25.513  25.486  1.00  0.00    -0.303 NA
ATOM     36  H   UNL     1     -49.730  26.252  25.806  1.00  0.00     0.045 H 
ATOM     37  H   UNL     1     -49.218  26.091  24.140  1.00  0.00     0.045 H 
ATOM     38  H   UNL     1     -45.645  25.460  25.336  1.00  0.00     0.045 H 
ATOM     39  H   UNL     1     -46.267  26.777  26.325  1.00  0.00     0.045 H 
BRANCH  35  40
ATOM     40  C   UNL     1     -47.923  24.893  26.794  1.00  0.00    -0.013 C 
ATOM     41  H   UNL     1     -47.299  24.002  26.916  1.00  0.00     0.039 H 
ATOM     42  H   UNL     1     -47.676  25.603  27.592  1.00  0.00     0.039 H 
ATOM     43  H   UNL     1     -48.970  24.606  26.946  1.00  0.00     0.039 H 
ENDBRANCH  35  40
ENDBRANCH   9  26
ENDBRANCH   4   5
ENDBRANCH   1   4
BRANCH   1  44
ATOM     44  C   UNL     1     -46.954  36.216  27.286  1.00  0.00     0.010 A 
ATOM     45  C   UNL     1     -47.083  35.919  28.637  1.00  0.00     0.034 A 
ATOM     46  C   UNL     1     -46.252  37.383  26.954  1.00  0.00    -0.028 A 
ATOM     47  N   UNL     1     -46.596  36.692  29.633  1.00  0.00    -0.262 NA
ATOM     48  H   UNL     1     -47.596  35.021  28.974  1.00  0.00     0.084 H 
ATOM     49  C   UNL     1     -45.764  38.230  27.951  1.00  0.00     0.066 A 
ATOM     50  H   UNL     1     -46.087  37.602  25.904  1.00  0.00     0.065 H 
ATOM     51  C   UNL     1     -45.954  37.829  29.269  1.00  0.00     0.051 A 
ATOM     52  H   UNL     1     -45.624  38.418  30.119  1.00  0.00     0.086 H 
BRANCH  49  53
ATOM     53  N   UNL     1     -45.113  39.464  27.641  1.00  0.00    -0.300 N 
ATOM     54  C   UNL     1     -45.410  40.275  26.554  1.00  0.00     0.012 A 
ATOM     55  C   UNL     1     -44.063  40.070  28.336  1.00  0.00     0.150 A 
ATOM     56  C   UNL     1     -44.588  41.379  26.571  1.00  0.00    -0.031 A 
ATOM     57  H   UNL     1     -46.208  40.033  25.868  1.00  0.00     0.082 H 
ATOM     58  C   UNL     1     -43.725  41.252  27.686  1.00  0.00     0.061 A 
ATOM     59  N   UNL     1     -43.436  39.589  29.428  1.00  0.00    -0.218 NA
ATOM     60  H   UNL     1     -44.609  42.192  25.857  1.00  0.00     0.065 H 
ATOM     61  C   UNL     1     -42.677  42.007  28.234  1.00  0.00     0.136 A 
ATOM     62  C   UNL     1     -42.449  40.386  29.859  1.00  0.00     0.120 A 
ATOM     63  N   UNL     1     -42.042  41.552  29.327  1.00  0.00    -0.219 NA
ATOM     64  H   UNL     1     -41.914  40.049  30.742  1.00  0.00     0.106 H 
BRANCH  61  65
ATOM     65  N   UNL     1     -42.227  43.203  27.691  1.00  0.00    -0.383 N 
ATOM     66  H   UNL     1     -42.761  44.018  27.955  1.00  0.00     0.158 HD
ATOM     67  H   UNL     1     -42.036  43.090  26.702  1.00  0.00     0.158 HD
ENDBRANCH  61  65
ENDBRANCH  49  53
ENDBRANCH   1  44
TORSDOF 9
ENDMDL
MODEL 3
REMARK VINA RESULT:      -9.3      2.428     11.896
REMARK SMILES CCc1cc(N2CCN(C)CC2)c2ccc(OCc3cncc(-n4ccc5c(N)ncnc54)c3)cc2n1
REMARK SMILES IDX 18 1 17 4 16 5 3 6 4 7 37 8 5 9 36 11 13 12 35 13 14 14
REMARK SMILES IDX 15 16 2 19 1 22 6 26 7 27 12 28 8 29 11 32 9 35 10 40 19 44
REMARK SMILES IDX 20 45 34 46 21 47 23 49 22 51 24 53 25 54 33 55 26 56 27 58
REMARK SMILES IDX 32 59 28 61 31 62 30 63 29 65
REMARK H PARENT 18 2 18 3 4 10 35 15 14 17 15 18 2 20 2 21 1 23 1 24 1 25 7 30
REMARK H PARENT 7 31 12 33 12 34 8 36 8 37 11 38 11 39 10 41 10 42 10 43 20 48
REMARK H PARENT 34 50 22 52 25 57 26 60 31 64 29 66 29 67
REMARK Flexibility Score: inf
ROOT
ATOM      1  C   UNL     1     -46.960  35.366  26.095  1.00  0.00     0.115 C 
ATOM      2  H   UNL     1     -48.012  35.514  25.821  1.00  0.00     0.076 H 
ATOM      3  H   UNL     1     -46.407  35.291  25.151  1.00  0.00     0.076 H 
ENDROOT
BRANCH   1   4
ATOM      4  O   UNL     1     -46.912  34.121  26.801  1.00  0.00    -0.489 OA
BRANCH   4   5
ATOM      5  C   UNL     1     -47.178  32.968  26.114  1.00  0.00     0.122 A 
ATOM      6  C   UNL     1     -46.452  30.859  21.914  1.00  0.00     0.043 A 
ATOM      7  C   UNL     1     -47.243  29.768  22.238  1.00  0.00    -0.016 A 
ATOM      8  N   UNL     1     -46.250  31.884  22.769  1.00  0.00    -0.253 NA
ATOM      9  C   UNL     1     -47.852  29.700  23.495  1.00  0.00     0.048 A 
ATOM     10  H   UNL     1     -47.395  28.967  21.523  1.00  0.00     0.066 H 
ATOM     11  C   UNL     1     -46.820  31.832  23.984  1.00  0.00     0.076 A 
ATOM     12  C   UNL     1     -47.639  30.764  24.410  1.00  0.00     0.024 A 
ATOM     13  C   UNL     1     -46.597  32.897  24.846  1.00  0.00     0.007 A 
ATOM     14  C   UNL     1     -48.195  30.829  25.711  1.00  0.00    -0.047 A 
ATOM     15  H   UNL     1     -45.975  33.720  24.503  1.00  0.00     0.069 H 
ATOM     16  C   UNL     1     -47.969  31.918  26.555  1.00  0.00    -0.019 A 
ATOM     17  H   UNL     1     -48.827  30.026  26.073  1.00  0.00     0.063 H 
ATOM     18  H   UNL     1     -48.435  31.915  27.533  1.00  0.00     0.066 H 
BRANCH   6  19
ATOM     19  C   UNL     1     -45.808  30.962  20.558  1.00  0.00    -0.013 C 
ATOM     20  H   UNL     1     -44.745  31.204  20.681  1.00  0.00     0.033 H 
ATOM     21  H   UNL     1     -45.850  29.991  20.050  1.00  0.00     0.033 H 
BRANCH  19  22
ATOM     22  C   UNL     1     -46.471  32.028  19.701  1.00  0.00    -0.060 C 
ATOM     23  H   UNL     1     -46.169  33.034  20.011  1.00  0.00     0.023 H 
ATOM     24  H   UNL     1     -46.206  31.910  18.645  1.00  0.00     0.023 H 
ATOM     25  H   UNL     1     -47.561  31.959  19.786  1.00  0.00     0.023 H 
ENDBRANCH  19  22
ENDBRANCH   6  19
BRANCH   9  26
ATOM     26  N   UNL     1     -48.642  28.575  23.739  1.00  0.00    -0.368 N 
ATOM     27  C   UNL     1     -50.084  28.797  23.897  1.00  0.00     0.031 C 
ATOM     28  C   UNL     1     -48.047  27.475  24.515  1.00  0.00     0.031 C 
ATOM     29  C   UNL     1     -50.821  27.437  23.937  1.00  0.00     0.016 C 
ATOM     30  H   UNL     1     -50.468  29.378  23.050  1.00  0.00     0.051 H 
ATOM     31  H   UNL     1     -50.303  29.359  24.812  1.00  0.00     0.051 H 
ATOM     32  C   UNL     1     -49.046  26.881  25.537  1.00  0.00     0.016 C 
ATOM     33  H   UNL     1     -47.142  27.793  25.049  1.00  0.00     0.051 H 
ATOM     34  H   UNL     1     -47.742  26.690  23.811  1.00  0.00     0.051 H 
ATOM     35  N   UNL     1     -50.344  26.477  24.958  1.00  0.00    -0.303 NA
ATOM     36  H   UNL     1     -51.900  27.620  24.029  1.00  0.00     0.045 H 
ATOM     37  H   UNL     1     -50.683  26.951  22.964  1.00  0.00     0.045 H 
ATOM     38  H   UNL     1     -48.582  26.009  26.013  1.00  0.00     0.045 H 
ATOM     39  H   UNL     1     -49.208  27.625  26.328  1.00  0.00     0.045 H 
BRANCH  35  40
ATOM     40  C   UNL     1     -51.335  26.254  26.004  1.00  0.00    -0.013 C 
ATOM     41  H   UNL     1     -52.351  26.488  25.666  1.00  0.00     0.039 H 
ATOM     42  H   UNL     1     -51.313  25.210  26.339  1.00  0.00     0.039 H 
ATOM     43  H   UNL     1     -51.113  26.868  26.884  1.00  0.00     0.039 H 
ENDBRANCH  35  40
ENDBRANCH   9  26
ENDBRANCH   4   5
ENDBRANCH   1   4
BRANCH   1  44
ATOM     44  C   UNL     1     -46.535  36.576  26.894  1.00  0.00     0.010 A 
ATOM     45  C   UNL     1     -45.784  36.409  28.051  1.00  0.00     0.034 A 
ATOM     46  C   UNL     1     -46.832  37.891  26.511  1.00  0.00    -0.028 A 
ATOM     47  N   UNL     1     -45.352  37.428  28.827  1.00  0.00    -0.262 NA
ATOM     48  H   UNL     1     -45.496  35.422  28.402  1.00  0.00     0.084 H 
ATOM     49  C   UNL     1     -46.437  38.972  27.302  1.00  0.00     0.066 A 
ATOM     50  H   UNL     1     -47.364  38.047  25.578  1.00  0.00     0.065 H 
ATOM     51  C   UNL     1     -45.691  38.682  28.439  1.00  0.00     0.051 A 
ATOM     52  H   UNL     1     -45.344  39.445  29.128  1.00  0.00     0.086 H 
BRANCH  49  53
ATOM     53  N   UNL     1     -46.793  40.316  26.976  1.00  0.00    -0.300 N 
ATOM     54  C   UNL     1     -48.018  40.909  27.251  1.00  0.00     0.012 A 
ATOM     55  C   UNL     1     -46.013  41.267  26.313  1.00  0.00     0.150 A 
ATOM     56  C   UNL     1     -48.008  42.209  26.798  1.00  0.00    -0.031 A 
ATOM     57  H   UNL     1     -48.797  40.382  27.783  1.00  0.00     0.082 H 
ATOM     58  C   UNL     1     -46.750  42.440  26.193  1.00  0.00     0.061 A 
ATOM     59  N   UNL     1     -44.770  41.088  25.824  1.00  0.00    -0.218 NA
ATOM     60  H   UNL     1     -48.820  42.918  26.894  1.00  0.00     0.065 H 
ATOM     61  C   UNL     1     -46.133  43.519  25.541  1.00  0.00     0.136 A 
ATOM     62  C   UNL     1     -44.283  42.180  25.217  1.00  0.00     0.120 A 
ATOM     63  N   UNL     1     -44.890  43.368  25.052  1.00  0.00    -0.219 NA
ATOM     64  H   UNL     1     -43.280  42.093  24.809  1.00  0.00     0.106 H 
BRANCH  61  65
ATOM     65  N   UNL     1     -46.747  44.748  25.343  1.00  0.00    -0.383 N 
ATOM     66  H   UNL     1     -46.203  45.416  24.816  1.00  0.00     0.158 HD
ATOM     67  H   UNL     1     -47.153  45.081  26.210  1.00  0.00     0.158 HD
ENDBRANCH  61  65
ENDBRANCH  49  53
ENDBRANCH   1  44
TORSDOF 9
ENDMDL
MODEL 4
REMARK VINA RESULT:      -9.1      3.283      5.899
REMARK SMILES CCc1cc(N2CCN(C)CC2)c2ccc(OCc3cncc(-n4ccc5c(N)ncnc54)c3)cc2n1
REMARK SMILES IDX 18 1 17 4 16 5 3 6 4 7 37 8 5 9 36 11 13 12 35 13 14 14
REMARK SMILES IDX 15 16 2 19 1 22 6 26 7 27 12 28 8 29 11 32 9 35 10 40 19 44
REMARK SMILES IDX 20 45 34 46 21 47 23 49 22 51 24 53 25 54 33 55 26 56 27 58
REMARK SMILES IDX 32 59 28 61 31 62 30 63 29 65
REMARK H PARENT 18 2 18 3 4 10 35 15 14 17 15 18 2 20 2 21 1 23 1 24 1 25 7 30
REMARK H PARENT 7 31 12 33 12 34 8 36 8 37 11 38 11 39 10 41 10 42 10 43 20 48
REMARK H PARENT 34 50 22 52 25 57 26 60 31 64 29 66 29 67
REMARK Flexibility Score: inf
ROOT
ATOM      1  C   UNL     1     -46.403  32.673  24.693  1.00  0.00     0.115 C 
ATOM      2  H   UNL     1     -45.345  32.499  24.924  1.00  0.00     0.076 H 
ATOM      3  H   UNL     1     -46.434  33.570  24.062  1.00  0.00     0.076 H 
ENDROOT
BRANCH   1   4
ATOM      4  O   UNL     1     -47.040  32.926  25.950  1.00  0.00    -0.489 OA
BRANCH   4   5
ATOM      5  C   UNL     1     -47.135  34.219  26.388  1.00  0.00     0.122 A 
ATOM      6  C   UNL     1     -50.262  37.376  28.081  1.00  0.00     0.043 A 
ATOM      7  C   UNL     1     -49.336  38.406  28.089  1.00  0.00    -0.016 A 
ATOM      8  N   UNL     1     -49.952  36.128  27.672  1.00  0.00    -0.253 NA
ATOM      9  C   UNL     1     -48.023  38.163  27.674  1.00  0.00     0.048 A 
ATOM     10  H   UNL     1     -49.622  39.401  28.412  1.00  0.00     0.066 H 
ATOM     11  C   UNL     1     -48.694  35.873  27.278  1.00  0.00     0.076 A 
ATOM     12  C   UNL     1     -47.677  36.852  27.252  1.00  0.00     0.024 A 
ATOM     13  C   UNL     1     -48.398  34.583  26.862  1.00  0.00     0.007 A 
ATOM     14  C   UNL     1     -46.391  36.466  26.803  1.00  0.00    -0.047 A 
ATOM     15  H   UNL     1     -49.192  33.839  26.874  1.00  0.00     0.069 H 
ATOM     16  C   UNL     1     -46.121  35.164  26.374  1.00  0.00    -0.019 A 
ATOM     17  H   UNL     1     -45.585  37.190  26.771  1.00  0.00     0.063 H 
ATOM     18  H   UNL     1     -45.120  34.934  26.029  1.00  0.00     0.066 H 
BRANCH   6  19
ATOM     19  C   UNL     1     -51.686  37.624  28.502  1.00  0.00    -0.013 C 
ATOM     20  H   UNL     1     -51.837  38.700  28.649  1.00  0.00     0.033 H 
ATOM     21  H   UNL     1     -52.370  37.320  27.701  1.00  0.00     0.033 H 
BRANCH  19  22
ATOM     22  C   UNL     1     -52.028  36.887  29.787  1.00  0.00    -0.060 C 
ATOM     23  H   UNL     1     -52.178  37.584  30.619  1.00  0.00     0.023 H 
ATOM     24  H   UNL     1     -52.944  36.297  29.675  1.00  0.00     0.023 H 
ATOM     25  H   UNL     1     -51.216  36.203  30.059  1.00  0.00     0.023 H 
ENDBRANCH  19  22
ENDBRANCH   6  19
BRANCH   9  26
ATOM     26  N   UNL     1     -47.154  39.256  27.699  1.00  0.00    -0.368 N 
ATOM     27  C   UNL     1     -46.977  39.993  26.442  1.00  0.00     0.031 C 
ATOM     28  C   UNL     1     -45.994  39.188  28.603  1.00  0.00     0.031 C 
ATOM     29  C   UNL     1     -46.167  41.285  26.704  1.00  0.00     0.016 C 
ATOM     30  H   UNL     1     -47.954  40.270  26.030  1.00  0.00     0.051 H 
ATOM     31  H   UNL     1     -46.460  39.384  25.692  1.00  0.00     0.051 H 
ATOM     32  C   UNL     1     -44.711  39.745  27.940  1.00  0.00     0.016 C 
ATOM     33  H   UNL     1     -45.800  38.163  28.943  1.00  0.00     0.051 H 
ATOM     34  H   UNL     1     -46.225  39.783  29.496  1.00  0.00     0.051 H 
ATOM     35  N   UNL     1     -44.858  41.100  27.369  1.00  0.00    -0.303 NA
ATOM     36  H   UNL     1     -46.065  41.839  25.761  1.00  0.00     0.045 H 
ATOM     37  H   UNL     1     -46.763  41.928  27.364  1.00  0.00     0.045 H 
ATOM     38  H   UNL     1     -43.909  39.759  28.688  1.00  0.00     0.045 H 
ATOM     39  H   UNL     1     -44.399  39.043  27.156  1.00  0.00     0.045 H 
BRANCH  35  40
ATOM     40  C   UNL     1     -43.743  41.415  26.482  1.00  0.00    -0.013 C 
ATOM     41  H   UNL     1     -43.950  42.292  25.858  1.00  0.00     0.039 H 
ATOM     42  H   UNL     1     -42.833  41.608  27.061  1.00  0.00     0.039 H 
ATOM     43  H   UNL     1     -43.522  40.567  25.824  1.00  0.00     0.039 H 
ENDBRANCH  35  40
ENDBRANCH   9  26
ENDBRANCH   4   5
ENDBRANCH   1   4
BRANCH   1  44
ATOM     44  C   UNL     1     -46.902  31.455  23.952  1.00  0.00     0.010 A 
ATOM     45  C   UNL     1     -46.387  31.149  22.699  1.00  0.00     0.034 A 
ATOM     46  C   UNL     1     -47.857  30.574  24.481  1.00  0.00    -0.028 A 
ATOM     47  N   UNL     1     -46.764  30.080  21.964  1.00  0.00    -0.262 NA
ATOM     48  H   UNL     1     -45.628  31.773  22.231  1.00  0.00     0.084 H 
ATOM     49  C   UNL     1     -48.303  29.477  23.740  1.00  0.00     0.066 A 
ATOM     50  H   UNL     1     -48.227  30.760  25.484  1.00  0.00     0.065 H 
ATOM     51  C   UNL     1     -47.714  29.273  22.497  1.00  0.00     0.051 A 
ATOM     52  H   UNL     1     -47.995  28.459  21.837  1.00  0.00     0.086 H 
BRANCH  49  53
ATOM     53  N   UNL     1     -49.330  28.609  24.222  1.00  0.00    -0.300 N 
ATOM     54  C   UNL     1     -50.670  28.679  23.868  1.00  0.00     0.012 A 
ATOM     55  C   UNL     1     -49.198  27.563  25.139  1.00  0.00     0.150 A 
ATOM     56  C   UNL     1     -51.368  27.689  24.522  1.00  0.00    -0.031 A 
ATOM     57  H   UNL     1     -51.029  29.400  23.148  1.00  0.00     0.082 H 
ATOM     58  C   UNL     1     -50.448  26.986  25.337  1.00  0.00     0.061 A 
ATOM     59  N   UNL     1     -48.071  27.184  25.773  1.00  0.00    -0.218 NA
ATOM     60  H   UNL     1     -52.427  27.491  24.421  1.00  0.00     0.065 H 
ATOM     61  C   UNL     1     -50.523  25.913  26.238  1.00  0.00     0.136 A 
ATOM     62  C   UNL     1     -48.261  26.157  26.613  1.00  0.00     0.120 A 
ATOM     63  N   UNL     1     -49.410  25.512  26.875  1.00  0.00    -0.219 NA
ATOM     64  H   UNL     1     -47.382  25.807  27.146  1.00  0.00     0.106 H 
BRANCH  61  65
ATOM     65  N   UNL     1     -51.702  25.244  26.539  1.00  0.00    -0.383 N 
ATOM     66  H   UNL     1     -51.587  24.279  26.809  1.00  0.00     0.158 HD
ATOM     67  H   UNL     1     -52.403  25.435  25.832  1.00  0.00     0.158 HD
ENDBRANCH  61  65
ENDBRANCH  49  53
ENDBRANCH   1  44
TORSDOF 9
ENDMDL
MODEL 5
REMARK VINA RESULT:      -9.1      2.050     11.461
REMARK SMILES CCc1cc(N2CCN(C)CC2)c2ccc(OCc3cncc(-n4ccc5c(N)ncnc54)c3)cc2n1
REMARK SMILES IDX 18 1 17 4 16 5 3 6 4 7 37 8 5 9 36 11 13 12 35 13 14 14
REMARK SMILES IDX 15 16 2 19 1 22 6 26 7 27 12 28 8 29 11 32 9 35 10 40 19 44
REMARK SMILES IDX 20 45 34 46 21 47 23 49 22 51 24 53 25 54 33 55 26 56 27 58
REMARK SMILES IDX 32 59 28 61 31 62 30 63 29 65
REMARK H PARENT 18 2 18 3 4 10 35 15 14 17 15 18 2 20 2 21 1 23 1 24 1 25 7 30
REMARK H PARENT 7 31 12 33 12 34 8 36 8 37 11 38 11 39 10 41 10 42 10 43 20 48
REMARK H PARENT 34 50 22 52 25 57 26 60 31 64 29 66 29 67
REMARK Flexibility Score: inf
ROOT
ATOM      1  C   UNL     1     -46.764  35.485  28.242  1.00  0.00     0.115 C 
ATOM      2  H   UNL     1     -46.119  34.611  28.395  1.00  0.00     0.076 H 
ATOM      3  H   UNL     1     -47.651  35.323  28.868  1.00  0.00     0.076 H 
ENDROOT
BRANCH   1   4
ATOM      4  O   UNL     1     -47.123  35.468  26.856  1.00  0.00    -0.489 OA
BRANCH   4   5
ATOM      5  C   UNL     1     -47.553  34.292  26.305  1.00  0.00     0.122 A 
ATOM      6  C   UNL     1     -46.352  31.009  23.081  1.00  0.00     0.043 A 
ATOM      7  C   UNL     1     -47.537  30.310  23.237  1.00  0.00    -0.016 A 
ATOM      8  N   UNL     1     -46.076  32.130  23.781  1.00  0.00    -0.253 NA
ATOM      9  C   UNL     1     -48.491  30.756  24.157  1.00  0.00     0.048 A 
ATOM     10  H   UNL     1     -47.733  29.420  22.649  1.00  0.00     0.066 H 
ATOM     11  C   UNL     1     -46.976  32.569  24.676  1.00  0.00     0.076 A 
ATOM     12  C   UNL     1     -48.211  31.926  24.910  1.00  0.00     0.024 A 
ATOM     13  C   UNL     1     -46.671  33.722  25.384  1.00  0.00     0.007 A 
ATOM     14  C   UNL     1     -49.085  32.492  25.871  1.00  0.00    -0.047 A 
ATOM     15  H   UNL     1     -45.722  34.216  25.186  1.00  0.00     0.069 H 
ATOM     16  C   UNL     1     -48.762  33.662  26.560  1.00  0.00    -0.019 A 
ATOM     17  H   UNL     1     -50.040  32.025  26.080  1.00  0.00     0.063 H 
ATOM     18  H   UNL     1     -49.479  34.053  27.273  1.00  0.00     0.066 H 
BRANCH   6  19
ATOM     19  C   UNL     1     -45.323  30.558  22.078  1.00  0.00    -0.013 C 
ATOM     20  H   UNL     1     -45.718  30.705  21.066  1.00  0.00     0.033 H 
ATOM     21  H   UNL     1     -44.426  31.184  22.157  1.00  0.00     0.033 H 
BRANCH  19  22
ATOM     22  C   UNL     1     -44.957  29.095  22.270  1.00  0.00    -0.060 C 
ATOM     23  H   UNL     1     -43.870  28.955  22.284  1.00  0.00     0.023 H 
ATOM     24  H   UNL     1     -45.357  28.707  23.213  1.00  0.00     0.023 H 
ATOM     25  H   UNL     1     -45.367  28.491  21.453  1.00  0.00     0.023 H 
ENDBRANCH  19  22
ENDBRANCH   6  19
BRANCH   9  26
ATOM     26  N   UNL     1     -49.664  30.002  24.246  1.00  0.00    -0.368 N 
ATOM     27  C   UNL     1     -49.512  28.544  24.319  1.00  0.00     0.031 C 
ATOM     28  C   UNL     1     -50.862  30.517  23.563  1.00  0.00     0.031 C 
ATOM     29  C   UNL     1     -50.880  27.892  24.633  1.00  0.00     0.016 C 
ATOM     30  H   UNL     1     -48.807  28.280  25.116  1.00  0.00     0.051 H 
ATOM     31  H   UNL     1     -49.121  28.137  23.380  1.00  0.00     0.051 H 
ATOM     32  C   UNL     1     -51.648  29.391  22.849  1.00  0.00     0.016 C 
ATOM     33  H   UNL     1     -50.613  31.294  22.830  1.00  0.00     0.051 H 
ATOM     34  H   UNL     1     -51.507  30.984  24.317  1.00  0.00     0.051 H 
ATOM     35  N   UNL     1     -51.985  28.240  23.712  1.00  0.00    -0.303 NA
ATOM     36  H   UNL     1     -50.747  26.805  24.710  1.00  0.00     0.045 H 
ATOM     37  H   UNL     1     -51.191  28.226  25.631  1.00  0.00     0.045 H 
ATOM     38  H   UNL     1     -52.575  29.815  22.444  1.00  0.00     0.045 H 
ATOM     39  H   UNL     1     -51.055  29.051  21.991  1.00  0.00     0.045 H 
BRANCH  35  40
ATOM     40  C   UNL     1     -52.412  27.096  22.913  1.00  0.00    -0.013 C 
ATOM     41  H   UNL     1     -51.569  26.458  22.626  1.00  0.00     0.039 H 
ATOM     42  H   UNL     1     -53.135  26.487  23.468  1.00  0.00     0.039 H 
ATOM     43  H   UNL     1     -52.919  27.430  22.001  1.00  0.00     0.039 H 
ENDBRANCH  35  40
ENDBRANCH   9  26
ENDBRANCH   4   5
ENDBRANCH   1   4
BRANCH   1  44
ATOM     44  C   UNL     1     -45.983  36.698  28.690  1.00  0.00     0.010 A 
ATOM     45  C   UNL     1     -45.471  36.751  29.980  1.00  0.00     0.034 A 
ATOM     46  C   UNL     1     -45.710  37.786  27.850  1.00  0.00    -0.028 A 
ATOM     47  N   UNL     1     -44.754  37.787  30.469  1.00  0.00    -0.262 NA
ATOM     48  H   UNL     1     -45.622  35.936  30.684  1.00  0.00     0.084 H 
ATOM     49  C   UNL     1     -45.005  38.895  28.325  1.00  0.00     0.066 A 
ATOM     50  H   UNL     1     -46.047  37.738  26.820  1.00  0.00     0.065 H 
ATOM     51  C   UNL     1     -44.542  38.835  29.635  1.00  0.00     0.051 A 
ATOM     52  H   UNL     1     -43.995  39.645  30.106  1.00  0.00     0.086 H 
BRANCH  49  53
ATOM     53  N   UNL     1     -44.780  40.050  27.515  1.00  0.00    -0.300 N 
ATOM     54  C   UNL     1     -43.538  40.497  27.085  1.00  0.00     0.012 A 
ATOM     55  C   UNL     1     -45.735  40.947  27.030  1.00  0.00     0.150 A 
ATOM     56  C   UNL     1     -43.701  41.634  26.326  1.00  0.00    -0.031 A 
ATOM     57  H   UNL     1     -42.631  39.958  27.314  1.00  0.00     0.082 H 
ATOM     58  C   UNL     1     -45.084  41.933  26.295  1.00  0.00     0.061 A 
ATOM     59  N   UNL     1     -47.063  40.911  27.256  1.00  0.00    -0.218 NA
ATOM     60  H   UNL     1     -42.908  42.189  25.841  1.00  0.00     0.065 H 
ATOM     61  C   UNL     1     -45.881  42.939  25.727  1.00  0.00     0.136 A 
ATOM     62  C   UNL     1     -47.722  41.922  26.674  1.00  0.00     0.120 A 
ATOM     63  N   UNL     1     -47.209  42.919  25.933  1.00  0.00    -0.219 NA
ATOM     64  H   UNL     1     -48.798  41.938  26.819  1.00  0.00     0.106 H 
BRANCH  61  65
ATOM     65  N   UNL     1     -45.371  43.988  24.975  1.00  0.00    -0.383 N 
ATOM     66  H   UNL     1     -45.094  43.744  24.035  1.00  0.00     0.158 HD
ATOM     67  H   UNL     1     -44.700  44.517  25.519  1.00  0.00     0.158 HD
ENDBRANCH  61  65
ENDBRANCH  49  53
ENDBRANCH   1  44
TORSDOF 9
ENDMDL
MODEL 6
REMARK VINA RESULT:      -8.9      2.938     12.450
REMARK SMILES CCc1cc(N2CCN(C)CC2)c2ccc(OCc3cncc(-n4ccc5c(N)ncnc54)c3)cc2n1
REMARK SMILES IDX 18 1 17 4 16 5 3 6 4 7 37 8 5 9 36 11 13 12 35 13 14 14
REMARK SMILES IDX 15 16 2 19 1 22 6 26 7 27 12 28 8 29 11 32 9 35 10 40 19 44
REMARK SMILES IDX 20 45 34 46 21 47 23 49 22 51 24 53 25 54 33 55 26 56 27 58
REMARK SMILES IDX 32 59 28 61 31 62 30 63 29 65
REMARK H PARENT 18 2 18 3 4 10 35 15 14 17 15 18 2 20 2 21 1 23 1 24 1 25 7 30
REMARK H PARENT 7 31 12 33 12 34 8 36 8 37 11 38 11 39 10 41 10 42 10 43 20 48
REMARK H PARENT 34 50 22 52 25 57 26 60 31 64 29 66 29 67
REMARK Flexibility Score: inf
ROOT
ATOM      1  C   UNL     1     -47.017  34.553  26.682  1.00  0.00     0.115 C 
ATOM      2  H   UNL     1     -46.714  34.671  25.635  1.00  0.00     0.076 H 
ATOM      3  H   UNL     1     -46.224  33.971  27.167  1.00  0.00     0.076 H 
ENDROOT
BRANCH   1   4
ATOM      4  O   UNL     1     -48.237  33.805  26.653  1.00  0.00    -0.489 OA
BRANCH   4   5
ATOM      5  C   UNL     1     -48.236  32.572  26.059  1.00  0.00     0.122 A 
ATOM      6  C   UNL     1     -49.254  30.395  21.956  1.00  0.00     0.043 A 
ATOM      7  C   UNL     1     -49.003  29.134  22.473  1.00  0.00    -0.016 A 
ATOM      8  N   UNL     1     -49.128  31.517  22.695  1.00  0.00    -0.253 NA
ATOM      9  C   UNL     1     -48.591  28.998  23.803  1.00  0.00     0.048 A 
ATOM     10  H   UNL     1     -49.126  28.251  21.856  1.00  0.00     0.066 H 
ATOM     11  C   UNL     1     -48.726  31.407  23.972  1.00  0.00     0.076 A 
ATOM     12  C   UNL     1     -48.443  30.170  24.590  1.00  0.00     0.024 A 
ATOM     13  C   UNL     1     -48.603  32.574  24.711  1.00  0.00     0.007 A 
ATOM     14  C   UNL     1     -48.038  30.180  25.947  1.00  0.00    -0.047 A 
ATOM     15  H   UNL     1     -48.836  33.521  24.229  1.00  0.00     0.069 H 
ATOM     16  C   UNL     1     -47.937  31.367  26.676  1.00  0.00    -0.019 A 
ATOM     17  H   UNL     1     -47.810  29.250  26.455  1.00  0.00     0.063 H 
ATOM     18  H   UNL     1     -47.636  31.308  27.715  1.00  0.00     0.066 H 
BRANCH   6  19
ATOM     19  C   UNL     1     -49.721  30.560  20.535  1.00  0.00    -0.013 C 
ATOM     20  H   UNL     1     -50.720  31.010  20.534  1.00  0.00     0.033 H 
ATOM     21  H   UNL     1     -49.063  31.260  20.005  1.00  0.00     0.033 H 
BRANCH  19  22
ATOM     22  C   UNL     1     -49.766  29.229  19.800  1.00  0.00    -0.060 C 
ATOM     23  H   UNL     1     -49.715  29.370  18.715  1.00  0.00     0.023 H 
ATOM     24  H   UNL     1     -48.929  28.586  20.094  1.00  0.00     0.023 H 
ATOM     25  H   UNL     1     -50.697  28.701  20.031  1.00  0.00     0.023 H 
ENDBRANCH  19  22
ENDBRANCH   6  19
BRANCH   9  26
ATOM     26  N   UNL     1     -48.371  27.694  24.251  1.00  0.00    -0.368 N 
ATOM     27  C   UNL     1     -49.178  27.237  25.389  1.00  0.00     0.031 C 
ATOM     28  C   UNL     1     -47.006  27.152  24.140  1.00  0.00     0.031 C 
ATOM     29  C   UNL     1     -48.965  25.720  25.605  1.00  0.00     0.016 C 
ATOM     30  H   UNL     1     -50.242  27.416  25.189  1.00  0.00     0.051 H 
ATOM     31  H   UNL     1     -48.917  27.777  26.305  1.00  0.00     0.051 H 
ATOM     32  C   UNL     1     -46.601  26.344  25.396  1.00  0.00     0.016 C 
ATOM     33  H   UNL     1     -46.264  27.944  23.974  1.00  0.00     0.051 H 
ATOM     34  H   UNL     1     -46.974  26.495  23.262  1.00  0.00     0.051 H 
ATOM     35  N   UNL     1     -47.560  25.286  25.777  1.00  0.00    -0.303 NA
ATOM     36  H   UNL     1     -49.594  25.388  26.442  1.00  0.00     0.045 H 
ATOM     37  H   UNL     1     -49.346  25.196  24.720  1.00  0.00     0.045 H 
ATOM     38  H   UNL     1     -45.620  25.887  25.216  1.00  0.00     0.045 H 
ATOM     39  H   UNL     1     -46.474  27.048  26.229  1.00  0.00     0.045 H 
BRANCH  35  40
ATOM     40  C   UNL     1     -47.297  24.806  27.130  1.00  0.00    -0.013 C 
ATOM     41  H   UNL     1     -46.227  24.804  27.365  1.00  0.00     0.039 H 
ATOM     42  H   UNL     1     -47.813  25.432  27.867  1.00  0.00     0.039 H 
ATOM     43  H   UNL     1     -47.682  23.788  27.259  1.00  0.00     0.039 H 
ENDBRANCH  35  40
ENDBRANCH   9  26
ENDBRANCH   4   5
ENDBRANCH   1   4
BRANCH   1  44
ATOM     44  C   UNL     1     -47.127  35.940  27.272  1.00  0.00     0.010 A 
ATOM     45  C   UNL     1     -48.379  36.511  27.465  1.00  0.00     0.034 A 
ATOM     46  C   UNL     1     -46.014  36.692  27.674  1.00  0.00    -0.028 A 
ATOM     47  N   UNL     1     -48.578  37.739  27.991  1.00  0.00    -0.262 NA
ATOM     48  H   UNL     1     -49.290  35.982  27.197  1.00  0.00     0.084 H 
ATOM     49  C   UNL     1     -46.172  37.981  28.189  1.00  0.00     0.066 A 
ATOM     50  H   UNL     1     -45.031  36.241  27.589  1.00  0.00     0.065 H 
ATOM     51  C   UNL     1     -47.474  38.447  28.335  1.00  0.00     0.051 A 
ATOM     52  H   UNL     1     -47.708  39.436  28.713  1.00  0.00     0.086 H 
BRANCH  49  53
ATOM     53  N   UNL     1     -45.053  38.798  28.534  1.00  0.00    -0.300 N 
ATOM     54  C   UNL     1     -44.288  38.664  29.684  1.00  0.00     0.012 A 
ATOM     55  C   UNL     1     -44.535  39.879  27.816  1.00  0.00     0.150 A 
ATOM     56  C   UNL     1     -43.295  39.618  29.686  1.00  0.00    -0.031 A 
ATOM     57  H   UNL     1     -44.476  37.879  30.402  1.00  0.00     0.082 H 
ATOM     58  C   UNL     1     -43.450  40.398  28.515  1.00  0.00     0.061 A 
ATOM     59  N   UNL     1     -45.013  40.382  26.660  1.00  0.00    -0.218 NA
ATOM     60  H   UNL     1     -42.536  39.738  30.448  1.00  0.00     0.065 H 
ATOM     61  C   UNL     1     -42.796  41.504  27.952  1.00  0.00     0.136 A 
ATOM     62  C   UNL     1     -44.317  41.438  26.220  1.00  0.00     0.120 A 
ATOM     63  N   UNL     1     -43.249  42.018  26.796  1.00  0.00    -0.219 NA
ATOM     64  H   UNL     1     -44.656  41.880  25.287  1.00  0.00     0.106 H 
BRANCH  61  65
ATOM     65  N   UNL     1     -41.704  42.130  28.538  1.00  0.00    -0.383 N 
ATOM     66  H   UNL     1     -40.877  41.557  28.620  1.00  0.00     0.158 HD
ATOM     67  H   UNL     1     -41.992  42.627  29.373  1.00  0.00     0.158 HD
ENDBRANCH  61  65
ENDBRANCH  49  53
ENDBRANCH   1  44
TORSDOF 9
ENDMDL
MODEL 7
REMARK VINA RESULT:      -8.7      1.911     10.554
REMARK SMILES CCc1cc(N2CCN(C)CC2)c2ccc(OCc3cncc(-n4ccc5c(N)ncnc54)c3)cc2n1
REMARK SMILES IDX 18 1 17 4 16 5 3 6 4 7 37 8 5 9 36 11 13 12 35 13 14 14
REMARK SMILES IDX 15 16 2 19 1 22 6 26 7 27 12 28 8 29 11 32 9 35 10 40 19 44
REMARK SMILES IDX 20 45 34 46 21 47 23 49 22 51 24 53 25 54 33 55 26 56 27 58
REMARK SMILES IDX 32 59 28 61 31 62 30 63 29 65
REMARK H PARENT 18 2 18 3 4 10 35 15 14 17 15 18 2 20 2 21 1 23 1 24 1 25 7 30
REMARK H PARENT 7 31 12 33 12 34 8 36 8 37 11 38 11 39 10 41 10 42 10 43 20 48
REMARK H PARENT 34 50 22 52 25 57 26 60 31 64 29 66 29 67
REMARK Flexibility Score: inf
ROOT
ATOM      1  C   UNL     1     -44.078  38.904  29.367  1.00  0.00     0.115 C 
ATOM      2  H   UNL     1     -43.687  38.087  28.748  1.00  0.00     0.076 H 
ATOM      3  H   UNL     1     -43.690  38.733  30.379  1.00  0.00     0.076 H 
ENDROOT
BRANCH   1   4
ATOM      4  O   UNL     1     -45.502  38.761  29.350  1.00  0.00    -0.489 OA
BRANCH   4   5
ATOM      5  C   UNL     1     -46.048  37.723  28.645  1.00  0.00     0.122 A 
ATOM      6  C   UNL     1     -50.229  35.925  27.267  1.00  0.00     0.043 A 
ATOM      7  C   UNL     1     -49.648  34.802  26.702  1.00  0.00    -0.016 A 
ATOM      8  N   UNL     1     -49.502  36.892  27.866  1.00  0.00    -0.253 NA
ATOM      9  C   UNL     1     -48.258  34.650  26.730  1.00  0.00     0.048 A 
ATOM     10  H   UNL     1     -50.263  34.037  26.239  1.00  0.00     0.066 H 
ATOM     11  C   UNL     1     -48.165  36.767  27.896  1.00  0.00     0.076 A 
ATOM     12  C   UNL     1     -47.478  35.663  27.346  1.00  0.00     0.024 A 
ATOM     13  C   UNL     1     -47.438  37.773  28.516  1.00  0.00     0.007 A 
ATOM     14  C   UNL     1     -46.066  35.638  27.451  1.00  0.00    -0.047 A 
ATOM     15  H   UNL     1     -47.979  38.613  28.948  1.00  0.00     0.069 H 
ATOM     16  C   UNL     1     -45.357  36.655  28.094  1.00  0.00    -0.019 A 
ATOM     17  H   UNL     1     -45.504  34.808  27.038  1.00  0.00     0.063 H 
ATOM     18  H   UNL     1     -44.278  36.571  28.154  1.00  0.00     0.066 H 
BRANCH   6  19
ATOM     19  C   UNL     1     -51.725  36.095  27.267  1.00  0.00    -0.013 C 
ATOM     20  H   UNL     1     -52.117  35.838  26.276  1.00  0.00     0.033 H 
ATOM     21  H   UNL     1     -52.181  35.392  27.974  1.00  0.00     0.033 H 
BRANCH  19  22
ATOM     22  C   UNL     1     -52.128  37.520  27.615  1.00  0.00    -0.060 C 
ATOM     23  H   UNL     1     -52.265  37.642  28.695  1.00  0.00     0.023 H 
ATOM     24  H   UNL     1     -51.366  38.237  27.291  1.00  0.00     0.023 H 
ATOM     25  H   UNL     1     -53.070  37.779  27.121  1.00  0.00     0.023 H 
ENDBRANCH  19  22
ENDBRANCH   6  19
BRANCH   9  26
ATOM     26  N   UNL     1     -47.752  33.485  26.150  1.00  0.00    -0.368 N 
ATOM     27  C   UNL     1     -46.728  33.651  25.112  1.00  0.00     0.031 C 
ATOM     28  C   UNL     1     -48.662  32.336  26.014  1.00  0.00     0.031 C 
ATOM     29  C   UNL     1     -46.128  32.272  24.744  1.00  0.00     0.016 C 
ATOM     30  H   UNL     1     -45.921  34.295  25.481  1.00  0.00     0.051 H 
ATOM     31  H   UNL     1     -47.143  34.120  24.213  1.00  0.00     0.051 H 
ATOM     32  C   UNL     1     -48.493  31.623  24.650  1.00  0.00     0.016 C 
ATOM     33  H   UNL     1     -49.713  32.630  26.131  1.00  0.00     0.051 H 
ATOM     34  H   UNL     1     -48.436  31.628  26.821  1.00  0.00     0.051 H 
ATOM     35  N   UNL     1     -47.103  31.237  24.331  1.00  0.00    -0.303 NA
ATOM     36  H   UNL     1     -45.347  32.414  23.986  1.00  0.00     0.045 H 
ATOM     37  H   UNL     1     -45.615  31.880  25.631  1.00  0.00     0.045 H 
ATOM     38  H   UNL     1     -49.122  30.725  24.645  1.00  0.00     0.045 H 
ATOM     39  H   UNL     1     -48.883  32.287  23.867  1.00  0.00     0.045 H 
BRANCH  35  40
ATOM     40  C   UNL     1     -46.968  30.890  22.921  1.00  0.00    -0.013 C 
ATOM     41  H   UNL     1     -46.956  29.806  22.762  1.00  0.00     0.039 H 
ATOM     42  H   UNL     1     -47.793  31.317  22.340  1.00  0.00     0.039 H 
ATOM     43  H   UNL     1     -46.044  31.311  22.507  1.00  0.00     0.039 H 
ENDBRANCH  35  40
ENDBRANCH   9  26
ENDBRANCH   4   5
ENDBRANCH   1   4
BRANCH   1  44
ATOM     44  C   UNL     1     -43.553  40.194  28.783  1.00  0.00     0.010 A 
ATOM     45  C   UNL     1     -42.496  40.852  29.399  1.00  0.00     0.034 A 
ATOM     46  C   UNL     1     -44.061  40.766  27.608  1.00  0.00    -0.028 A 
ATOM     47  N   UNL     1     -41.955  42.005  28.948  1.00  0.00    -0.262 NA
ATOM     48  H   UNL     1     -42.035  40.461  30.303  1.00  0.00     0.084 H 
ATOM     49  C   UNL     1     -43.556  41.976  27.126  1.00  0.00     0.066 A 
ATOM     50  H   UNL     1     -44.845  40.236  27.076  1.00  0.00     0.065 H 
ATOM     51  C   UNL     1     -42.498  42.542  27.828  1.00  0.00     0.051 A 
ATOM     52  H   UNL     1     -42.040  43.485  27.548  1.00  0.00     0.086 H 
BRANCH  49  53
ATOM     53  N   UNL     1     -44.107  42.619  25.976  1.00  0.00    -0.300 N 
ATOM     54  C   UNL     1     -43.546  42.608  24.706  1.00  0.00     0.012 A 
ATOM     55  C   UNL     1     -45.273  43.386  25.907  1.00  0.00     0.150 A 
ATOM     56  C   UNL     1     -44.346  43.327  23.847  1.00  0.00    -0.031 A 
ATOM     57  H   UNL     1     -42.640  42.060  24.491  1.00  0.00     0.082 H 
ATOM     58  C   UNL     1     -45.434  43.833  24.600  1.00  0.00     0.061 A 
ATOM     59  N   UNL     1     -46.097  43.692  26.928  1.00  0.00    -0.218 NA
ATOM     60  H   UNL     1     -44.168  43.471  22.790  1.00  0.00     0.065 H 
ATOM     61  C   UNL     1     -46.554  44.632  24.329  1.00  0.00     0.136 A 
ATOM     62  C   UNL     1     -47.127  44.465  26.557  1.00  0.00     0.120 A 
ATOM     63  N   UNL     1     -47.395  44.944  25.330  1.00  0.00    -0.219 NA
ATOM     64  H   UNL     1     -47.828  44.737  27.342  1.00  0.00     0.106 H 
BRANCH  61  65
ATOM     65  N   UNL     1     -46.841  45.154  23.075  1.00  0.00    -0.383 N 
ATOM     66  H   UNL     1     -47.536  44.644  22.550  1.00  0.00     0.158 HD
ATOM     67  H   UNL     1     -45.983  45.381  22.586  1.00  0.00     0.158 HD
ENDBRANCH  61  65
ENDBRANCH  49  53
ENDBRANCH   1  44
TORSDOF 9
ENDMDL
