MODEL 1
REMARK VINA RESULT:      -9.5      0.000      0.000
REMARK SMILES Nc1ncnc2c1c(-n1cccn1)cn2[C@H]1C[C@H](O)[C@@H](COc2ccc3ccc(N4CCC4)nc3c2)O1
REMARK SMILES IDX 21 1 20 4 16 5 17 6 37 7 18 9 15 14 2 15 3 16 7 17 4 18 6 19
REMARK SMILES IDX 8 20 5 21 14 23 1 25 9 28 10 29 13 30 11 31 12 33 19 36
REMARK SMILES IDX 22 38 23 39 24 40 36 41 25 42 35 44 26 46 34 48 27 49 29 50
REMARK SMILES IDX 28 51 30 54 31 55 33 56 32 57
REMARK H PARENT 21 2 21 3 16 8 17 10 17 11 18 12 20 13 4 22 14 24 1 26 1 27
REMARK H PARENT 10 32 11 34 12 35 19 37 24 43 36 45 25 47 27 52 28 53 31 58
REMARK H PARENT 31 59 33 60 33 61 32 62 32 63
REMARK Flexibility Score: inf
ROOT
ATOM      1  C   UNL     1     -47.968  36.136  27.283  1.00  0.00     0.117 C 
ATOM      2  H   UNL     1     -47.723  36.473  26.270  1.00  0.00     0.073 H 
ATOM      3  H   UNL     1     -48.679  36.833  27.739  1.00  0.00     0.073 H 
ENDROOT
BRANCH   1   4
ATOM      4  C   UNL     1     -46.689  36.146  28.145  1.00  0.00     0.120 C 
ATOM      5  C   UNL     1     -46.008  38.369  28.525  1.00  0.00     0.138 C 
ATOM      6  C   UNL     1     -46.861  37.938  29.721  1.00  0.00     0.022 C 
ATOM      7  O   UNL     1     -45.792  37.193  27.705  1.00  0.00    -0.348 OA
ATOM      8  H   UNL     1     -45.022  38.728  28.843  1.00  0.00     0.085 H 
ATOM      9  C   UNL     1     -46.890  36.429  29.626  1.00  0.00     0.088 C 
ATOM     10  H   UNL     1     -46.422  38.294  30.660  1.00  0.00     0.034 H 
ATOM     11  H   UNL     1     -47.876  38.345  29.664  1.00  0.00     0.034 H 
ATOM     12  H   UNL     1     -47.800  35.987  30.038  1.00  0.00     0.063 H 
ATOM     13  H   UNL     1     -46.154  35.204  27.979  1.00  0.00     0.067 H 
BRANCH   5  14
ATOM     14  N   UNL     1     -46.590  39.433  27.714  1.00  0.00    -0.303 N 
ATOM     15  C   UNL     1     -46.057  42.392  25.863  1.00  0.00     0.138 A 
ATOM     16  N   UNL     1     -44.740  42.310  25.591  1.00  0.00    -0.219 NA
ATOM     17  C   UNL     1     -46.706  41.313  26.487  1.00  0.00     0.087 A 
ATOM     18  C   UNL     1     -44.068  41.223  26.003  1.00  0.00     0.120 A 
ATOM     19  C   UNL     1     -45.862  40.294  26.929  1.00  0.00     0.149 A 
ATOM     20  C   UNL     1     -48.028  40.928  26.879  1.00  0.00     0.096 A 
ATOM     21  N   UNL     1     -44.541  40.187  26.708  1.00  0.00    -0.218 NA
ATOM     22  H   UNL     1     -43.013  41.191  25.753  1.00  0.00     0.106 H 
ATOM     23  C   UNL     1     -47.916  39.763  27.620  1.00  0.00     0.035 A 
ATOM     24  H   UNL     1     -48.683  39.168  28.102  1.00  0.00     0.084 H 
BRANCH  15  25
ATOM     25  N   UNL     1     -46.646  43.624  25.584  1.00  0.00    -0.383 N 
ATOM     26  H   UNL     1     -47.617  43.554  25.872  1.00  0.00     0.158 HD
ATOM     27  H   UNL     1     -46.571  43.819  24.584  1.00  0.00     0.158 HD
ENDBRANCH  15  25
BRANCH  20  28
ATOM     28  N   UNL     1     -49.283  41.553  26.614  1.00  0.00    -0.239 N 
ATOM     29  C   UNL     1     -50.520  41.255  27.147  1.00  0.00     0.031 A 
ATOM     30  N   UNL     1     -49.380  42.632  25.780  1.00  0.00    -0.176 NA
ATOM     31  C   UNL     1     -51.440  42.099  26.575  1.00  0.00    -0.024 A 
ATOM     32  H   UNL     1     -50.640  40.502  27.908  1.00  0.00     0.084 H 
ATOM     33  C   UNL     1     -50.678  42.925  25.743  1.00  0.00     0.049 A 
ATOM     34  H   UNL     1     -52.502  42.131  26.765  1.00  0.00     0.066 H 
ATOM     35  H   UNL     1     -51.010  43.744  25.120  1.00  0.00     0.086 H 
ENDBRANCH  20  28
ENDBRANCH   5  14
BRANCH   9  36
ATOM     36  O   UNL     1     -45.786  35.904  30.375  1.00  0.00    -0.390 OA
ATOM     37  H   UNL     1     -46.140  35.458  31.166  1.00  0.00     0.211 HD
ENDBRANCH   9  36
ENDBRANCH   1   4
BRANCH   1  38
ATOM     38  O   UNL     1     -48.511  34.817  27.175  1.00  0.00    -0.491 OA
BRANCH  38  39
ATOM     39  C   UNL     1     -47.892  33.938  26.331  1.00  0.00     0.121 A 
ATOM     40  C   UNL     1     -46.733  34.187  25.604  1.00  0.00    -0.019 A 
ATOM     41  C   UNL     1     -48.525  32.695  26.207  1.00  0.00     0.007 A 
ATOM     42  C   UNL     1     -46.254  33.222  24.718  1.00  0.00    -0.049 A 
ATOM     43  H   UNL     1     -46.190  35.121  25.689  1.00  0.00     0.066 H 
ATOM     44  C   UNL     1     -48.073  31.718  25.330  1.00  0.00     0.076 A 
ATOM     45  H   UNL     1     -49.422  32.495  26.789  1.00  0.00     0.069 H 
ATOM     46  C   UNL     1     -46.925  31.998  24.569  1.00  0.00     0.001 A 
ATOM     47  H   UNL     1     -45.362  33.438  24.134  1.00  0.00     0.063 H 
ATOM     48  N   UNL     1     -48.740  30.551  25.225  1.00  0.00    -0.231 NA
ATOM     49  C   UNL     1     -46.482  31.023  23.672  1.00  0.00    -0.049 A 
ATOM     50  C   UNL     1     -48.286  29.603  24.375  1.00  0.00     0.129 A 
ATOM     51  C   UNL     1     -47.169  29.817  23.575  1.00  0.00    -0.019 A 
ATOM     52  H   UNL     1     -45.602  31.188  23.057  1.00  0.00     0.063 H 
ATOM     53  H   UNL     1     -46.815  29.043  22.903  1.00  0.00     0.066 H 
BRANCH  50  54
ATOM     54  N   UNL     1     -48.938  28.355  24.323  1.00  0.00    -0.356 N 
ATOM     55  C   UNL     1     -50.350  28.157  24.505  1.00  0.00     0.021 C 
ATOM     56  C   UNL     1     -48.608  27.220  25.137  1.00  0.00     0.021 C 
ATOM     57  C   UNL     1     -50.013  26.697  24.827  1.00  0.00    -0.018 C 
ATOM     58  H   UNL     1     -50.935  28.320  23.597  1.00  0.00     0.049 H 
ATOM     59  H   UNL     1     -50.757  28.734  25.341  1.00  0.00     0.049 H 
ATOM     60  H   UNL     1     -48.430  27.468  26.187  1.00  0.00     0.049 H 
ATOM     61  H   UNL     1     -47.780  26.629  24.736  1.00  0.00     0.049 H 
ATOM     62  H   UNL     1     -50.555  26.258  25.668  1.00  0.00     0.030 H 
ATOM     63  H   UNL     1     -50.064  26.022  23.965  1.00  0.00     0.030 H 
ENDBRANCH  50  54
ENDBRANCH  38  39
ENDBRANCH   1  38
TORSDOF 8
ENDMDL
MODEL 2
REMARK VINA RESULT:      -9.3      2.485      3.669
REMARK SMILES Nc1ncnc2c1c(-n1cccn1)cn2[C@H]1C[C@H](O)[C@@H](COc2ccc3ccc(N4CCC4)nc3c2)O1
REMARK SMILES IDX 21 1 20 4 16 5 17 6 37 7 18 9 15 14 2 15 3 16 7 17 4 18 6 19
REMARK SMILES IDX 8 20 5 21 14 23 1 25 9 28 10 29 13 30 11 31 12 33 19 36
REMARK SMILES IDX 22 38 23 39 24 40 36 41 25 42 35 44 26 46 34 48 27 49 29 50
REMARK SMILES IDX 28 51 30 54 31 55 33 56 32 57
REMARK H PARENT 21 2 21 3 16 8 17 10 17 11 18 12 20 13 4 22 14 24 1 26 1 27
REMARK H PARENT 10 32 11 34 12 35 19 37 24 43 36 45 25 47 27 52 28 53 31 58
REMARK H PARENT 31 59 33 60 33 61 32 62 32 63
REMARK Flexibility Score: inf
ROOT
ATOM      1  C   UNL     1     -47.139  37.399  27.871  1.00  0.00     0.117 C 
ATOM      2  H   UNL     1     -46.787  38.434  27.820  1.00  0.00     0.073 H 
ATOM      3  H   UNL     1     -48.169  37.380  28.244  1.00  0.00     0.073 H 
ENDROOT
BRANCH   1   4
ATOM      4  C   UNL     1     -46.268  36.614  28.873  1.00  0.00     0.120 C 
ATOM      5  C   UNL     1     -44.495  37.976  29.616  1.00  0.00     0.138 C 
ATOM      6  C   UNL     1     -45.629  38.100  30.636  1.00  0.00     0.022 C 
ATOM      7  O   UNL     1     -44.869  36.932  28.682  1.00  0.00    -0.348 OA
ATOM      8  H   UNL     1     -43.558  37.664  30.093  1.00  0.00     0.085 H 
ATOM      9  C   UNL     1     -46.517  36.911  30.344  1.00  0.00     0.088 C 
ATOM     10  H   UNL     1     -45.235  38.092  31.659  1.00  0.00     0.034 H 
ATOM     11  H   UNL     1     -46.187  39.034  30.513  1.00  0.00     0.034 H 
ATOM     12  H   UNL     1     -47.569  37.087  30.584  1.00  0.00     0.063 H 
ATOM     13  H   UNL     1     -46.365  35.545  28.651  1.00  0.00     0.067 H 
BRANCH   5  14
ATOM     14  N   UNL     1     -44.195  39.204  28.886  1.00  0.00    -0.303 N 
ATOM     15  C   UNL     1     -42.461  42.278  28.825  1.00  0.00     0.138 A 
ATOM     16  N   UNL     1     -41.483  42.057  29.725  1.00  0.00    -0.219 NA
ATOM     17  C   UNL     1     -43.312  41.224  28.451  1.00  0.00     0.087 A 
ATOM     18  C   UNL     1     -41.404  40.846  30.300  1.00  0.00     0.120 A 
ATOM     19  C   UNL     1     -43.161  40.053  29.195  1.00  0.00     0.149 A 
ATOM     20  C   UNL     1     -44.377  40.971  27.530  1.00  0.00     0.096 A 
ATOM     21  N   UNL     1     -42.221  39.801  30.122  1.00  0.00    -0.218 NA
ATOM     22  H   UNL     1     -40.594  40.707  31.009  1.00  0.00     0.106 H 
ATOM     23  C   UNL     1     -44.887  39.716  27.821  1.00  0.00     0.035 A 
ATOM     24  H   UNL     1     -45.702  39.172  27.361  1.00  0.00     0.084 H 
BRANCH  15  25
ATOM     25  N   UNL     1     -42.606  43.603  28.418  1.00  0.00    -0.383 N 
ATOM     26  H   UNL     1     -42.282  44.181  29.187  1.00  0.00     0.158 HD
ATOM     27  H   UNL     1     -43.588  43.789  28.205  1.00  0.00     0.158 HD
ENDBRANCH  15  25
BRANCH  20  28
ATOM     28  N   UNL     1     -44.898  41.787  26.480  1.00  0.00    -0.239 N 
ATOM     29  C   UNL     1     -44.303  42.130  25.285  1.00  0.00     0.031 A 
ATOM     30  N   UNL     1     -46.162  42.304  26.541  1.00  0.00    -0.176 NA
ATOM     31  C   UNL     1     -45.164  42.957  24.607  1.00  0.00    -0.024 A 
ATOM     32  H   UNL     1     -43.342  41.736  24.998  1.00  0.00     0.084 H 
ATOM     33  C   UNL     1     -46.293  43.026  25.430  1.00  0.00     0.049 A 
ATOM     34  H   UNL     1     -45.009  43.411  23.640  1.00  0.00     0.066 H 
ATOM     35  H   UNL     1     -47.219  43.559  25.260  1.00  0.00     0.086 H 
ENDBRANCH  20  28
ENDBRANCH   5  14
BRANCH   9  36
ATOM     36  O   UNL     1     -46.078  35.806  31.144  1.00  0.00    -0.390 OA
ATOM     37  H   UNL     1     -45.233  36.051  31.564  1.00  0.00     0.211 HD
ENDBRANCH   9  36
ENDBRANCH   1   4
BRANCH   1  38
ATOM     38  O   UNL     1     -47.042  36.847  26.555  1.00  0.00    -0.491 OA
BRANCH  38  39
ATOM     39  C   UNL     1     -47.597  35.618  26.334  1.00  0.00     0.121 A 
ATOM     40  C   UNL     1     -48.812  35.171  26.842  1.00  0.00    -0.019 A 
ATOM     41  C   UNL     1     -46.832  34.761  25.533  1.00  0.00     0.007 A 
ATOM     42  C   UNL     1     -49.220  33.860  26.599  1.00  0.00    -0.049 A 
ATOM     43  H   UNL     1     -49.454  35.806  27.442  1.00  0.00     0.066 H 
ATOM     44  C   UNL     1     -47.213  33.451  25.277  1.00  0.00     0.076 A 
ATOM     45  H   UNL     1     -45.891  35.118  25.121  1.00  0.00     0.069 H 
ATOM     46  C   UNL     1     -48.422  32.996  25.832  1.00  0.00     0.001 A 
ATOM     47  H   UNL     1     -50.160  33.512  27.024  1.00  0.00     0.063 H 
ATOM     48  N   UNL     1     -46.422  32.657  24.527  1.00  0.00    -0.231 NA
ATOM     49  C   UNL     1     -48.793  31.672  25.592  1.00  0.00    -0.049 A 
ATOM     50  C   UNL     1     -46.806  31.385  24.277  1.00  0.00     0.129 A 
ATOM     51  C   UNL     1     -47.978  30.861  24.809  1.00  0.00    -0.019 A 
ATOM     52  H   UNL     1     -49.717  31.268  25.999  1.00  0.00     0.063 H 
ATOM     53  H   UNL     1     -48.275  29.841  24.593  1.00  0.00     0.066 H 
BRANCH  50  54
ATOM     54  N   UNL     1     -46.017  30.583  23.429  1.00  0.00    -0.356 N 
ATOM     55  C   UNL     1     -45.702  30.892  22.062  1.00  0.00     0.021 C 
ATOM     56  C   UNL     1     -46.279  29.204  23.125  1.00  0.00     0.021 C 
ATOM     57  C   UNL     1     -45.399  29.400  21.886  1.00  0.00    -0.018 C 
ATOM     58  H   UNL     1     -44.850  31.566  21.951  1.00  0.00     0.049 H 
ATOM     59  H   UNL     1     -46.565  31.260  21.498  1.00  0.00     0.049 H 
ATOM     60  H   UNL     1     -47.330  28.992  22.914  1.00  0.00     0.049 H 
ATOM     61  H   UNL     1     -45.891  28.515  23.879  1.00  0.00     0.049 H 
ATOM     62  H   UNL     1     -45.768  28.945  20.963  1.00  0.00     0.030 H 
ATOM     63  H   UNL     1     -44.347  29.133  22.033  1.00  0.00     0.030 H 
ENDBRANCH  50  54
ENDBRANCH  38  39
ENDBRANCH   1  38
TORSDOF 8
ENDMDL
MODEL 3
REMARK VINA RESULT:      -9.3      2.593     11.335
REMARK SMILES Nc1ncnc2c1c(-n1cccn1)cn2[C@H]1C[C@H](O)[C@@H](COc2ccc3ccc(N4CCC4)nc3c2)O1
REMARK SMILES IDX 21 1 20 4 16 5 17 6 37 7 18 9 15 14 2 15 3 16 7 17 4 18 6 19
REMARK SMILES IDX 8 20 5 21 14 23 1 25 9 28 10 29 13 30 11 31 12 33 19 36
REMARK SMILES IDX 22 38 23 39 24 40 36 41 25 42 35 44 26 46 34 48 27 49 29 50
REMARK SMILES IDX 28 51 30 54 31 55 33 56 32 57
REMARK H PARENT 21 2 21 3 16 8 17 10 17 11 18 12 20 13 4 22 14 24 1 26 1 27
REMARK H PARENT 10 32 11 34 12 35 19 37 24 43 36 45 25 47 27 52 28 53 31 58
REMARK H PARENT 31 59 33 60 33 61 32 62 32 63
REMARK Flexibility Score: inf
ROOT
ATOM      1  C   UNL     1     -49.046  32.252  25.747  1.00  0.00     0.117 C 
ATOM      2  H   UNL     1     -49.347  31.282  26.155  1.00  0.00     0.073 H 
ATOM      3  H   UNL     1     -49.463  33.055  26.365  1.00  0.00     0.073 H 
ENDROOT
BRANCH   1   4
ATOM      4  C   UNL     1     -49.624  32.409  24.327  1.00  0.00     0.120 C 
ATOM      5  C   UNL     1     -49.394  30.382  23.150  1.00  0.00     0.138 C 
ATOM      6  C   UNL     1     -50.795  30.400  23.767  1.00  0.00     0.022 C 
ATOM      7  O   UNL     1     -48.812  31.690  23.369  1.00  0.00    -0.348 OA
ATOM      8  H   UNL     1     -49.435  30.221  22.066  1.00  0.00     0.085 H 
ATOM      9  C   UNL     1     -51.024  31.854  24.115  1.00  0.00     0.088 C 
ATOM     10  H   UNL     1     -51.537  30.012  23.059  1.00  0.00     0.034 H 
ATOM     11  H   UNL     1     -50.851  29.777  24.666  1.00  0.00     0.034 H 
ATOM     12  H   UNL     1     -51.686  31.994  24.973  1.00  0.00     0.063 H 
ATOM     13  H   UNL     1     -49.558  33.466  24.042  1.00  0.00     0.067 H 
BRANCH   5  14
ATOM     14  N   UNL     1     -48.507  29.353  23.684  1.00  0.00    -0.303 N 
ATOM     15  C   UNL     1     -45.496  27.545  23.325  1.00  0.00     0.138 A 
ATOM     16  N   UNL     1     -44.785  28.357  22.520  1.00  0.00    -0.219 NA
ATOM     17  C   UNL     1     -46.737  27.976  23.826  1.00  0.00     0.087 A 
ATOM     18  C   UNL     1     -45.326  29.530  22.153  1.00  0.00     0.120 A 
ATOM     19  C   UNL     1     -47.203  29.176  23.290  1.00  0.00     0.149 A 
ATOM     20  C   UNL     1     -47.754  27.524  24.725  1.00  0.00     0.096 A 
ATOM     21  N   UNL     1     -46.541  30.001  22.461  1.00  0.00    -0.218 NA
ATOM     22  H   UNL     1     -44.715  30.159  21.515  1.00  0.00     0.106 H 
ATOM     23  C   UNL     1     -48.820  28.402  24.618  1.00  0.00     0.035 A 
ATOM     24  H   UNL     1     -49.779  28.398  25.122  1.00  0.00     0.084 H 
BRANCH  15  25
ATOM     25  N   UNL     1     -44.963  26.270  23.505  1.00  0.00    -0.383 N 
ATOM     26  H   UNL     1     -45.490  25.837  24.257  1.00  0.00     0.158 HD
ATOM     27  H   UNL     1     -43.972  26.345  23.744  1.00  0.00     0.158 HD
ENDBRANCH  15  25
BRANCH  20  28
ATOM     28  N   UNL     1     -47.771  26.399  25.603  1.00  0.00    -0.239 N 
ATOM     29  C   UNL     1     -46.747  25.903  26.383  1.00  0.00     0.031 A 
ATOM     30  N   UNL     1     -48.913  25.678  25.814  1.00  0.00    -0.176 NA
ATOM     31  C   UNL     1     -47.216  24.789  27.036  1.00  0.00    -0.024 A 
ATOM     32  H   UNL     1     -45.791  26.395  26.440  1.00  0.00     0.084 H 
ATOM     33  C   UNL     1     -48.557  24.702  26.647  1.00  0.00     0.049 A 
ATOM     34  H   UNL     1     -46.672  24.158  27.722  1.00  0.00     0.066 H 
ATOM     35  H   UNL     1     -49.300  23.976  26.949  1.00  0.00     0.086 H 
ENDBRANCH  20  28
ENDBRANCH   5  14
BRANCH   9  36
ATOM     36  O   UNL     1     -51.639  32.500  22.993  1.00  0.00    -0.390 OA
ATOM     37  H   UNL     1     -52.357  31.926  22.668  1.00  0.00     0.211 HD
ENDBRANCH   9  36
ENDBRANCH   1   4
BRANCH   1  38
ATOM     38  O   UNL     1     -47.615  32.284  25.732  1.00  0.00    -0.491 OA
BRANCH  38  39
ATOM     39  C   UNL     1     -46.989  33.230  26.496  1.00  0.00     0.121 A 
ATOM     40  C   UNL     1     -46.213  32.982  27.622  1.00  0.00    -0.019 A 
ATOM     41  C   UNL     1     -47.188  34.551  26.077  1.00  0.00     0.007 A 
ATOM     42  C   UNL     1     -45.696  34.052  28.352  1.00  0.00    -0.049 A 
ATOM     43  H   UNL     1     -46.003  31.975  27.968  1.00  0.00     0.066 H 
ATOM     44  C   UNL     1     -46.689  35.635  26.786  1.00  0.00     0.076 A 
ATOM     45  H   UNL     1     -47.781  34.742  25.185  1.00  0.00     0.069 H 
ATOM     46  C   UNL     1     -45.941  35.374  27.948  1.00  0.00     0.001 A 
ATOM     47  H   UNL     1     -45.113  33.848  29.248  1.00  0.00     0.063 H 
ATOM     48  N   UNL     1     -46.939  36.888  26.358  1.00  0.00    -0.231 NA
ATOM     49  C   UNL     1     -45.458  36.465  28.672  1.00  0.00    -0.049 A 
ATOM     50  C   UNL     1     -46.441  37.937  27.051  1.00  0.00     0.129 A 
ATOM     51  C   UNL     1     -45.711  37.756  28.219  1.00  0.00    -0.019 A 
ATOM     52  H   UNL     1     -44.877  36.320  29.579  1.00  0.00     0.063 H 
ATOM     53  H   UNL     1     -45.313  38.608  28.760  1.00  0.00     0.066 H 
BRANCH  50  54
ATOM     54  N   UNL     1     -46.637  39.243  26.559  1.00  0.00    -0.356 N 
ATOM     55  C   UNL     1     -45.604  40.229  26.409  1.00  0.00     0.021 C 
ATOM     56  C   UNL     1     -47.560  40.197  27.105  1.00  0.00     0.021 C 
ATOM     57  C   UNL     1     -46.724  41.274  26.407  1.00  0.00    -0.018 C 
ATOM     58  H   UNL     1     -45.041  40.135  25.477  1.00  0.00     0.049 H 
ATOM     59  H   UNL     1     -44.929  40.274  27.269  1.00  0.00     0.049 H 
ATOM     60  H   UNL     1     -47.550  40.243  28.197  1.00  0.00     0.049 H 
ATOM     61  H   UNL     1     -48.580  40.072  26.734  1.00  0.00     0.049 H 
ATOM     62  H   UNL     1     -46.532  42.180  26.989  1.00  0.00     0.030 H 
ATOM     63  H   UNL     1     -47.084  41.549  25.409  1.00  0.00     0.030 H 
ENDBRANCH  50  54
ENDBRANCH  38  39
ENDBRANCH   1  38
TORSDOF 8
ENDMDL
MODEL 4
REMARK VINA RESULT:      -9.2      3.953      8.747
REMARK SMILES Nc1ncnc2c1c(-n1cccn1)cn2[C@H]1C[C@H](O)[C@@H](COc2ccc3ccc(N4CCC4)nc3c2)O1
REMARK SMILES IDX 21 1 20 4 16 5 17 6 37 7 18 9 15 14 2 15 3 16 7 17 4 18 6 19
REMARK SMILES IDX 8 20 5 21 14 23 1 25 9 28 10 29 13 30 11 31 12 33 19 36
REMARK SMILES IDX 22 38 23 39 24 40 36 41 25 42 35 44 26 46 34 48 27 49 29 50
REMARK SMILES IDX 28 51 30 54 31 55 33 56 32 57
REMARK H PARENT 21 2 21 3 16 8 17 10 17 11 18 12 20 13 4 22 14 24 1 26 1 27
REMARK H PARENT 10 32 11 34 12 35 19 37 24 43 36 45 25 47 27 52 28 53 31 58
REMARK H PARENT 31 59 33 60 33 61 32 62 32 63
REMARK Flexibility Score: inf
ROOT
ATOM      1  C   UNL     1     -45.115  36.714  27.965  1.00  0.00     0.117 C 
ATOM      2  H   UNL     1     -45.691  37.305  27.246  1.00  0.00     0.073 H 
ATOM      3  H   UNL     1     -44.144  36.451  27.530  1.00  0.00     0.073 H 
ENDROOT
BRANCH   1   4
ATOM      4  C   UNL     1     -45.864  35.397  28.257  1.00  0.00     0.120 C 
ATOM      5  C   UNL     1     -48.187  35.760  28.111  1.00  0.00     0.138 C 
ATOM      6  C   UNL     1     -47.716  35.238  26.751  1.00  0.00     0.022 C 
ATOM      7  O   UNL     1     -47.065  35.659  29.022  1.00  0.00    -0.348 OA
ATOM      8  H   UNL     1     -48.994  35.141  28.521  1.00  0.00     0.085 H 
ATOM      9  C   UNL     1     -46.361  34.633  27.040  1.00  0.00     0.088 C 
ATOM     10  H   UNL     1     -48.428  34.510  26.347  1.00  0.00     0.034 H 
ATOM     11  H   UNL     1     -47.627  36.045  26.015  1.00  0.00     0.034 H 
ATOM     12  H   UNL     1     -45.678  34.673  26.187  1.00  0.00     0.063 H 
ATOM     13  H   UNL     1     -45.230  34.775  28.898  1.00  0.00     0.067 H 
BRANCH   5  14
ATOM     14  N   UNL     1     -48.688  37.131  28.097  1.00  0.00    -0.303 N 
ATOM     15  C   UNL     1     -51.491  39.274  28.197  1.00  0.00     0.138 A 
ATOM     16  N   UNL     1     -52.425  38.476  28.752  1.00  0.00    -0.219 NA
ATOM     17  C   UNL     1     -50.162  38.827  28.104  1.00  0.00     0.087 A 
ATOM     18  C   UNL     1     -52.067  37.237  29.126  1.00  0.00     0.120 A 
ATOM     19  C   UNL     1     -49.964  37.491  28.455  1.00  0.00     0.149 A 
ATOM     20  C   UNL     1     -48.884  39.321  27.693  1.00  0.00     0.096 A 
ATOM     21  N   UNL     1     -50.872  36.652  28.981  1.00  0.00    -0.218 NA
ATOM     22  H   UNL     1     -52.846  36.632  29.578  1.00  0.00     0.106 H 
ATOM     23  C   UNL     1     -48.002  38.252  27.713  1.00  0.00     0.035 A 
ATOM     24  H   UNL     1     -46.950  38.213  27.459  1.00  0.00     0.084 H 
BRANCH  15  25
ATOM     25  N   UNL     1     -51.973  40.465  27.656  1.00  0.00    -0.383 N 
ATOM     26  H   UNL     1     -52.825  40.233  27.156  1.00  0.00     0.158 HD
ATOM     27  H   UNL     1     -51.271  40.862  27.028  1.00  0.00     0.158 HD
ENDBRANCH  15  25
BRANCH  20  28
ATOM     28  N   UNL     1     -48.486  40.637  27.311  1.00  0.00    -0.239 N 
ATOM     29  C   UNL     1     -48.929  41.846  27.806  1.00  0.00     0.031 A 
ATOM     30  N   UNL     1     -47.508  40.843  26.378  1.00  0.00    -0.176 NA
ATOM     31  C   UNL     1     -48.290  42.845  27.114  1.00  0.00    -0.024 A 
ATOM     32  H   UNL     1     -49.627  41.899  28.625  1.00  0.00     0.084 H 
ATOM     33  C   UNL     1     -47.426  42.166  26.250  1.00  0.00     0.049 A 
ATOM     34  H   UNL     1     -48.408  43.910  27.247  1.00  0.00     0.066 H 
ATOM     35  H   UNL     1     -46.722  42.578  25.539  1.00  0.00     0.086 H 
ENDBRANCH  20  28
ENDBRANCH   5  14
BRANCH   9  36
ATOM     36  O   UNL     1     -46.541  33.250  27.374  1.00  0.00    -0.390 OA
ATOM     37  H   UNL     1     -45.900  32.727  26.859  1.00  0.00     0.211 HD
ENDBRANCH   9  36
ENDBRANCH   1   4
BRANCH   1  38
ATOM     38  O   UNL     1     -44.970  37.503  29.150  1.00  0.00    -0.491 OA
BRANCH  38  39
ATOM     39  C   UNL     1     -44.224  38.645  29.069  1.00  0.00     0.121 A 
ATOM     40  C   UNL     1     -43.301  39.082  30.013  1.00  0.00    -0.019 A 
ATOM     41  C   UNL     1     -44.453  39.419  27.924  1.00  0.00     0.007 A 
ATOM     42  C   UNL     1     -42.665  40.311  29.837  1.00  0.00    -0.049 A 
ATOM     43  H   UNL     1     -43.066  38.504  30.900  1.00  0.00     0.066 H 
ATOM     44  C   UNL     1     -43.837  40.647  27.726  1.00  0.00     0.076 A 
ATOM     45  H   UNL     1     -45.162  39.067  27.178  1.00  0.00     0.069 H 
ATOM     46  C   UNL     1     -42.939  41.099  28.708  1.00  0.00     0.001 A 
ATOM     47  H   UNL     1     -41.966  40.657  30.596  1.00  0.00     0.063 H 
ATOM     48  N   UNL     1     -44.121  41.368  26.623  1.00  0.00    -0.231 NA
ATOM     49  C   UNL     1     -42.337  42.345  28.519  1.00  0.00    -0.049 A 
ATOM     50  C   UNL     1     -43.509  42.559  26.435  1.00  0.00     0.129 A 
ATOM     51  C   UNL     1     -42.625  43.079  27.373  1.00  0.00    -0.019 A 
ATOM     52  H   UNL     1     -41.636  42.744  29.248  1.00  0.00     0.063 H 
ATOM     53  H   UNL     1     -42.138  44.033  27.203  1.00  0.00     0.066 H 
BRANCH  50  54
ATOM     54  N   UNL     1     -43.746  43.275  25.244  1.00  0.00    -0.356 N 
ATOM     55  C   UNL     1     -44.791  44.243  25.060  1.00  0.00     0.021 C 
ATOM     56  C   UNL     1     -43.984  42.678  23.960  1.00  0.00     0.021 C 
ATOM     57  C   UNL     1     -44.621  44.011  23.556  1.00  0.00    -0.018 C 
ATOM     58  H   UNL     1     -44.530  45.241  25.419  1.00  0.00     0.049 H 
ATOM     59  H   UNL     1     -45.751  43.919  25.474  1.00  0.00     0.049 H 
ATOM     60  H   UNL     1     -44.672  41.829  23.990  1.00  0.00     0.049 H 
ATOM     61  H   UNL     1     -43.065  42.410  23.433  1.00  0.00     0.049 H 
ATOM     62  H   UNL     1     -45.546  43.941  22.977  1.00  0.00     0.030 H 
ATOM     63  H   UNL     1     -43.934  44.710  23.066  1.00  0.00     0.030 H 
ENDBRANCH  50  54
ENDBRANCH  38  39
ENDBRANCH   1  38
TORSDOF 8
ENDMDL
MODEL 5
REMARK VINA RESULT:      -9.0      1.410      3.186
REMARK SMILES Nc1ncnc2c1c(-n1cccn1)cn2[C@H]1C[C@H](O)[C@@H](COc2ccc3ccc(N4CCC4)nc3c2)O1
REMARK SMILES IDX 21 1 20 4 16 5 17 6 37 7 18 9 15 14 2 15 3 16 7 17 4 18 6 19
REMARK SMILES IDX 8 20 5 21 14 23 1 25 9 28 10 29 13 30 11 31 12 33 19 36
REMARK SMILES IDX 22 38 23 39 24 40 36 41 25 42 35 44 26 46 34 48 27 49 29 50
REMARK SMILES IDX 28 51 30 54 31 55 33 56 32 57
REMARK H PARENT 21 2 21 3 16 8 17 10 17 11 18 12 20 13 4 22 14 24 1 26 1 27
REMARK H PARENT 10 32 11 34 12 35 19 37 24 43 36 45 25 47 27 52 28 53 31 58
REMARK H PARENT 31 59 33 60 33 61 32 62 32 63
REMARK Flexibility Score: inf
ROOT
ATOM      1  C   UNL     1     -47.083  36.104  26.855  1.00  0.00     0.117 C 
ATOM      2  H   UNL     1     -46.469  36.279  25.965  1.00  0.00     0.073 H 
ATOM      3  H   UNL     1     -47.556  37.043  27.164  1.00  0.00     0.073 H 
ENDROOT
BRANCH   1   4
ATOM      4  C   UNL     1     -46.178  35.636  28.012  1.00  0.00     0.120 C 
ATOM      5  C   UNL     1     -45.238  37.508  29.089  1.00  0.00     0.138 C 
ATOM      6  C   UNL     1     -46.500  37.117  29.863  1.00  0.00     0.022 C 
ATOM      7  O   UNL     1     -45.001  36.473  28.103  1.00  0.00    -0.348 OA
ATOM      8  H   UNL     1     -44.359  37.540  29.745  1.00  0.00     0.085 H 
ATOM      9  C   UNL     1     -46.790  35.706  29.403  1.00  0.00     0.088 C 
ATOM     10  H   UNL     1     -46.330  37.183  30.943  1.00  0.00     0.034 H 
ATOM     11  H   UNL     1     -47.341  37.777  29.628  1.00  0.00     0.034 H 
ATOM     12  H   UNL     1     -47.853  35.452  29.428  1.00  0.00     0.063 H 
ATOM     13  H   UNL     1     -45.813  34.629  27.779  1.00  0.00     0.067 H 
BRANCH   5  14
ATOM     14  N   UNL     1     -45.306  38.809  28.431  1.00  0.00    -0.303 N 
ATOM     15  C   UNL     1     -47.318  41.240  26.850  1.00  0.00     0.138 A 
ATOM     16  N   UNL     1     -48.543  40.924  27.313  1.00  0.00    -0.219 NA
ATOM     17  C   UNL     1     -46.190  40.574  27.358  1.00  0.00     0.087 A 
ATOM     18  C   UNL     1     -48.653  39.917  28.195  1.00  0.00     0.120 A 
ATOM     19  C   UNL     1     -46.471  39.499  28.202  1.00  0.00     0.149 A 
ATOM     20  C   UNL     1     -44.764  40.621  27.240  1.00  0.00     0.096 A 
ATOM     21  N   UNL     1     -47.677  39.129  28.664  1.00  0.00    -0.218 NA
ATOM     22  H   UNL     1     -49.655  39.703  28.551  1.00  0.00     0.106 H 
ATOM     23  C   UNL     1     -44.257  39.527  27.922  1.00  0.00     0.035 A 
ATOM     24  H   UNL     1     -43.232  39.204  28.055  1.00  0.00     0.084 H 
BRANCH  15  25
ATOM     25  N   UNL     1     -47.299  42.155  25.798  1.00  0.00    -0.383 N 
ATOM     26  H   UNL     1     -48.223  42.571  25.758  1.00  0.00     0.158 HD
ATOM     27  H   UNL     1     -47.074  41.669  24.928  1.00  0.00     0.158 HD
ENDBRANCH  15  25
BRANCH  20  28
ATOM     28  N   UNL     1     -43.928  41.564  26.570  1.00  0.00    -0.239 N 
ATOM     29  C   UNL     1     -42.722  42.089  26.984  1.00  0.00     0.031 A 
ATOM     30  N   UNL     1     -44.241  42.034  25.325  1.00  0.00    -0.176 NA
ATOM     31  C   UNL     1     -42.300  42.981  26.030  1.00  0.00    -0.024 A 
ATOM     32  H   UNL     1     -42.249  41.765  27.896  1.00  0.00     0.084 H 
ATOM     33  C   UNL     1     -43.276  42.903  25.031  1.00  0.00     0.049 A 
ATOM     34  H   UNL     1     -41.396  43.572  26.042  1.00  0.00     0.066 H 
ATOM     35  H   UNL     1     -43.318  43.431  24.087  1.00  0.00     0.086 H 
ENDBRANCH  20  28
ENDBRANCH   5  14
BRANCH   9  36
ATOM     36  O   UNL     1     -46.115  34.793  30.278  1.00  0.00    -0.390 OA
ATOM     37  H   UNL     1     -45.900  33.989  29.772  1.00  0.00     0.211 HD
ENDBRANCH   9  36
ENDBRANCH   1   4
BRANCH   1  38
ATOM     38  O   UNL     1     -48.052  35.108  26.517  1.00  0.00    -0.491 OA
BRANCH  38  39
ATOM     39  C   UNL     1     -47.618  33.994  25.852  1.00  0.00     0.121 A 
ATOM     40  C   UNL     1     -46.480  33.913  25.058  1.00  0.00    -0.019 A 
ATOM     41  C   UNL     1     -48.432  32.864  26.003  1.00  0.00     0.007 A 
ATOM     42  C   UNL     1     -46.200  32.729  24.375  1.00  0.00    -0.049 A 
ATOM     43  H   UNL     1     -45.802  34.750  24.935  1.00  0.00     0.066 H 
ATOM     44  C   UNL     1     -48.179  31.675  25.332  1.00  0.00     0.076 A 
ATOM     45  H   UNL     1     -49.312  32.924  26.639  1.00  0.00     0.069 H 
ATOM     46  C   UNL     1     -47.049  31.618  24.498  1.00  0.00     0.001 A 
ATOM     47  H   UNL     1     -45.321  32.685  23.734  1.00  0.00     0.063 H 
ATOM     48  N   UNL     1     -49.014  30.629  25.486  1.00  0.00    -0.231 NA
ATOM     49  C   UNL     1     -46.807  30.429  23.806  1.00  0.00    -0.049 A 
ATOM     50  C   UNL     1     -48.754  29.472  24.835  1.00  0.00     0.129 A 
ATOM     51  C   UNL     1     -47.667  29.349  23.977  1.00  0.00    -0.019 A 
ATOM     52  H   UNL     1     -45.949  30.332  23.146  1.00  0.00     0.063 H 
ATOM     53  H   UNL     1     -47.469  28.413  23.468  1.00  0.00     0.066 H 
BRANCH  50  54
ATOM     54  N   UNL     1     -49.583  28.355  25.057  1.00  0.00    -0.356 N 
ATOM     55  C   UNL     1     -49.359  27.351  26.059  1.00  0.00     0.021 C 
ATOM     56  C   UNL     1     -49.932  27.380  24.064  1.00  0.00     0.021 C 
ATOM     57  C   UNL     1     -50.271  26.443  25.227  1.00  0.00    -0.018 C 
ATOM     58  H   UNL     1     -49.736  27.626  27.047  1.00  0.00     0.049 H 
ATOM     59  H   UNL     1     -48.314  27.031  26.116  1.00  0.00     0.049 H 
ATOM     60  H   UNL     1     -49.089  27.060  23.446  1.00  0.00     0.049 H 
ATOM     61  H   UNL     1     -50.774  27.684  23.437  1.00  0.00     0.049 H 
ATOM     62  H   UNL     1     -49.940  25.407  25.117  1.00  0.00     0.030 H 
ATOM     63  H   UNL     1     -51.324  26.461  25.530  1.00  0.00     0.030 H 
ENDBRANCH  50  54
ENDBRANCH  38  39
ENDBRANCH   1  38
TORSDOF 8
ENDMDL
MODEL 6
REMARK VINA RESULT:      -8.9      3.155     11.643
REMARK SMILES Nc1ncnc2c1c(-n1cccn1)cn2[C@H]1C[C@H](O)[C@@H](COc2ccc3ccc(N4CCC4)nc3c2)O1
REMARK SMILES IDX 21 1 20 4 16 5 17 6 37 7 18 9 15 14 2 15 3 16 7 17 4 18 6 19
REMARK SMILES IDX 8 20 5 21 14 23 1 25 9 28 10 29 13 30 11 31 12 33 19 36
REMARK SMILES IDX 22 38 23 39 24 40 36 41 25 42 35 44 26 46 34 48 27 49 29 50
REMARK SMILES IDX 28 51 30 54 31 55 33 56 32 57
REMARK H PARENT 21 2 21 3 16 8 17 10 17 11 18 12 20 13 4 22 14 24 1 26 1 27
REMARK H PARENT 10 32 11 34 12 35 19 37 24 43 36 45 25 47 27 52 28 53 31 58
REMARK H PARENT 31 59 33 60 33 61 32 62 32 63
REMARK Flexibility Score: inf
ROOT
ATOM      1  C   UNL     1     -46.948  31.374  24.461  1.00  0.00     0.117 C 
ATOM      2  H   UNL     1     -47.134  30.374  24.866  1.00  0.00     0.073 H 
ATOM      3  H   UNL     1     -47.893  31.816  24.127  1.00  0.00     0.073 H 
ENDROOT
BRANCH   1   4
ATOM      4  C   UNL     1     -46.028  31.260  23.228  1.00  0.00     0.120 C 
ATOM      5  C   UNL     1     -46.944  29.721  21.697  1.00  0.00     0.138 C 
ATOM      6  C   UNL     1     -47.403  31.119  21.276  1.00  0.00     0.022 C 
ATOM      7  O   UNL     1     -45.976  29.890  22.762  1.00  0.00    -0.348 OA
ATOM      8  H   UNL     1     -46.435  29.202  20.876  1.00  0.00     0.085 H 
ATOM      9  C   UNL     1     -46.459  32.051  22.003  1.00  0.00     0.088 C 
ATOM     10  H   UNL     1     -47.355  31.233  20.187  1.00  0.00     0.034 H 
ATOM     11  H   UNL     1     -48.439  31.314  21.574  1.00  0.00     0.034 H 
ATOM     12  H   UNL     1     -46.905  33.020  22.240  1.00  0.00     0.063 H 
ATOM     13  H   UNL     1     -45.007  31.511  23.536  1.00  0.00     0.067 H 
BRANCH   5  14
ATOM     14  N   UNL     1     -48.015  28.836  22.142  1.00  0.00    -0.303 N 
ATOM     15  C   UNL     1     -51.273  27.596  21.582  1.00  0.00     0.138 A 
ATOM     16  N   UNL     1     -51.445  27.863  20.273  1.00  0.00    -0.219 NA
ATOM     17  C   UNL     1     -50.020  27.822  22.178  1.00  0.00     0.087 A 
ATOM     18  C   UNL     1     -50.428  28.417  19.594  1.00  0.00     0.120 A 
ATOM     19  C   UNL     1     -49.092  28.477  21.369  1.00  0.00     0.149 A 
ATOM     20  C   UNL     1     -49.374  27.625  23.440  1.00  0.00     0.096 A 
ATOM     21  N   UNL     1     -49.233  28.790  20.069  1.00  0.00    -0.218 NA
ATOM     22  H   UNL     1     -50.604  28.604  18.540  1.00  0.00     0.106 H 
ATOM     23  C   UNL     1     -48.140  28.252  23.374  1.00  0.00     0.035 A 
ATOM     24  H   UNL     1     -47.363  28.340  24.124  1.00  0.00     0.084 H 
BRANCH  15  25
ATOM     25  N   UNL     1     -52.424  27.208  22.266  1.00  0.00    -0.383 N 
ATOM     26  H   UNL     1     -52.331  26.214  22.451  1.00  0.00     0.158 HD
ATOM     27  H   UNL     1     -53.244  27.403  21.690  1.00  0.00     0.158 HD
ENDBRANCH  15  25
BRANCH  20  28
ATOM     28  N   UNL     1     -49.825  26.937  24.606  1.00  0.00    -0.239 N 
ATOM     29  C   UNL     1     -49.115  26.091  25.432  1.00  0.00     0.031 A 
ATOM     30  N   UNL     1     -51.093  27.107  25.087  1.00  0.00    -0.176 NA
ATOM     31  C   UNL     1     -49.969  25.639  26.408  1.00  0.00    -0.024 A 
ATOM     32  H   UNL     1     -48.063  25.908  25.284  1.00  0.00     0.084 H 
ATOM     33  C   UNL     1     -51.172  26.301  26.144  1.00  0.00     0.049 A 
ATOM     34  H   UNL     1     -49.738  24.959  27.214  1.00  0.00     0.066 H 
ATOM     35  H   UNL     1     -52.105  26.245  26.689  1.00  0.00     0.086 H 
ENDBRANCH  20  28
ENDBRANCH   5  14
BRANCH   9  36
ATOM     36  O   UNL     1     -45.326  32.299  21.161  1.00  0.00    -0.390 OA
ATOM     37  H   UNL     1     -45.153  33.259  21.159  1.00  0.00     0.211 HD
ENDBRANCH   9  36
ENDBRANCH   1   4
BRANCH   1  38
ATOM     38  O   UNL     1     -46.336  32.149  25.496  1.00  0.00    -0.491 OA
BRANCH  38  39
ATOM     39  C   UNL     1     -47.053  33.184  26.029  1.00  0.00     0.121 A 
ATOM     40  C   UNL     1     -48.430  33.205  26.220  1.00  0.00    -0.019 A 
ATOM     41  C   UNL     1     -46.294  34.305  26.384  1.00  0.00     0.007 A 
ATOM     42  C   UNL     1     -49.041  34.362  26.703  1.00  0.00    -0.049 A 
ATOM     43  H   UNL     1     -49.057  32.351  25.989  1.00  0.00     0.066 H 
ATOM     44  C   UNL     1     -46.875  35.471  26.864  1.00  0.00     0.076 A 
ATOM     45  H   UNL     1     -45.215  34.280  26.251  1.00  0.00     0.069 H 
ATOM     46  C   UNL     1     -48.273  35.496  27.013  1.00  0.00     0.001 A 
ATOM     47  H   UNL     1     -50.122  34.377  26.823  1.00  0.00     0.063 H 
ATOM     48  N   UNL     1     -46.101  36.534  27.159  1.00  0.00    -0.231 NA
ATOM     49  C   UNL     1     -48.859  36.676  27.475  1.00  0.00    -0.049 A 
ATOM     50  C   UNL     1     -46.676  37.661  27.634  1.00  0.00     0.129 A 
ATOM     51  C   UNL     1     -48.054  37.766  27.787  1.00  0.00    -0.019 A 
ATOM     52  H   UNL     1     -49.936  36.751  27.605  1.00  0.00     0.063 H 
ATOM     53  H   UNL     1     -48.498  38.676  28.176  1.00  0.00     0.066 H 
BRANCH  50  54
ATOM     54  N   UNL     1     -45.858  38.744  28.015  1.00  0.00    -0.356 N 
ATOM     55  C   UNL     1     -45.123  39.579  27.107  1.00  0.00     0.021 C 
ATOM     56  C   UNL     1     -44.757  38.659  28.932  1.00  0.00     0.021 C 
ATOM     57  C   UNL     1     -44.248  39.960  28.306  1.00  0.00    -0.018 C 
ATOM     58  H   UNL     1     -45.718  40.388  26.678  1.00  0.00     0.049 H 
ATOM     59  H   UNL     1     -44.613  39.011  26.323  1.00  0.00     0.049 H 
ATOM     60  H   UNL     1     -44.116  37.788  28.771  1.00  0.00     0.049 H 
ATOM     61  H   UNL     1     -45.062  38.722  29.980  1.00  0.00     0.049 H 
ATOM     62  H   UNL     1     -43.173  40.008  28.114  1.00  0.00     0.030 H 
ATOM     63  H   UNL     1     -44.568  40.869  28.828  1.00  0.00     0.030 H 
ENDBRANCH  50  54
ENDBRANCH  38  39
ENDBRANCH   1  38
TORSDOF 8
ENDMDL
MODEL 7
REMARK VINA RESULT:      -8.8      3.642     12.097
REMARK SMILES Nc1ncnc2c1c(-n1cccn1)cn2[C@H]1C[C@H](O)[C@@H](COc2ccc3ccc(N4CCC4)nc3c2)O1
REMARK SMILES IDX 21 1 20 4 16 5 17 6 37 7 18 9 15 14 2 15 3 16 7 17 4 18 6 19
REMARK SMILES IDX 8 20 5 21 14 23 1 25 9 28 10 29 13 30 11 31 12 33 19 36
REMARK SMILES IDX 22 38 23 39 24 40 36 41 25 42 35 44 26 46 34 48 27 49 29 50
REMARK SMILES IDX 28 51 30 54 31 55 33 56 32 57
REMARK H PARENT 21 2 21 3 16 8 17 10 17 11 18 12 20 13 4 22 14 24 1 26 1 27
REMARK H PARENT 10 32 11 34 12 35 19 37 24 43 36 45 25 47 27 52 28 53 31 58
REMARK H PARENT 31 59 33 60 33 61 32 62 32 63
REMARK Flexibility Score: inf
ROOT
ATOM      1  C   UNL     1     -48.194  31.528  24.020  1.00  0.00     0.117 C 
ATOM      2  H   UNL     1     -48.020  30.583  24.544  1.00  0.00     0.073 H 
ATOM      3  H   UNL     1     -49.214  31.876  24.218  1.00  0.00     0.073 H 
ENDROOT
BRANCH   1   4
ATOM      4  C   UNL     1     -48.069  31.298  22.500  1.00  0.00     0.120 C 
ATOM      5  C   UNL     1     -48.814  29.128  21.965  1.00  0.00     0.138 C 
ATOM      6  C   UNL     1     -49.994  30.083  21.764  1.00  0.00     0.022 C 
ATOM      7  O   UNL     1     -47.644  29.941  22.229  1.00  0.00    -0.348 OA
ATOM      8  H   UNL     1     -48.609  28.548  21.057  1.00  0.00     0.085 H 
ATOM      9  C   UNL     1     -49.351  31.451  21.697  1.00  0.00     0.088 C 
ATOM     10  H   UNL     1     -50.547  29.831  20.853  1.00  0.00     0.034 H 
ATOM     11  H   UNL     1     -50.703  30.033  22.597  1.00  0.00     0.034 H 
ATOM     12  H   UNL     1     -50.002  32.252  22.058  1.00  0.00     0.063 H 
ATOM     13  H   UNL     1     -47.270  31.944  22.118  1.00  0.00     0.067 H 
BRANCH   5  14
ATOM     14  N   UNL     1     -48.992  28.158  23.040  1.00  0.00    -0.303 N 
ATOM     15  C   UNL     1     -51.198  26.641  25.341  1.00  0.00     0.138 A 
ATOM     16  N   UNL     1     -52.395  26.883  24.772  1.00  0.00    -0.219 NA
ATOM     17  C   UNL     1     -50.020  26.977  24.652  1.00  0.00     0.087 A 
ATOM     18  C   UNL     1     -52.424  27.517  23.589  1.00  0.00     0.120 A 
ATOM     19  C   UNL     1     -50.213  27.703  23.477  1.00  0.00     0.149 A 
ATOM     20  C   UNL     1     -48.604  26.844  24.807  1.00  0.00     0.096 A 
ATOM     21  N   UNL     1     -51.386  27.994  22.890  1.00  0.00    -0.218 NA
ATOM     22  H   UNL     1     -53.407  27.681  23.160  1.00  0.00     0.106 H 
ATOM     23  C   UNL     1     -48.007  27.574  23.791  1.00  0.00     0.035 A 
ATOM     24  H   UNL     1     -46.959  27.733  23.572  1.00  0.00     0.084 H 
BRANCH  15  25
ATOM     25  N   UNL     1     -51.248  26.161  26.649  1.00  0.00    -0.383 N 
ATOM     26  H   UNL     1     -51.447  25.168  26.587  1.00  0.00     0.158 HD
ATOM     27  H   UNL     1     -51.979  26.653  27.165  1.00  0.00     0.158 HD
ENDBRANCH  15  25
BRANCH  20  28
ATOM     28  N   UNL     1     -47.849  26.128  25.784  1.00  0.00    -0.239 N 
ATOM     29  C   UNL     1     -46.744  26.550  26.493  1.00  0.00     0.031 A 
ATOM     30  N   UNL     1     -48.211  24.872  26.183  1.00  0.00    -0.176 NA
ATOM     31  C   UNL     1     -46.336  25.512  27.294  1.00  0.00    -0.024 A 
ATOM     32  H   UNL     1     -46.362  27.553  26.400  1.00  0.00     0.084 H 
ATOM     33  C   UNL     1     -47.279  24.506  27.061  1.00  0.00     0.049 A 
ATOM     34  H   UNL     1     -45.498  25.503  27.975  1.00  0.00     0.066 H 
ATOM     35  H   UNL     1     -47.340  23.523  27.508  1.00  0.00     0.086 H 
ENDBRANCH  20  28
ENDBRANCH   5  14
BRANCH   9  36
ATOM     36  O   UNL     1     -49.038  31.741  20.329  1.00  0.00    -0.390 OA
ATOM     37  H   UNL     1     -49.856  32.028  19.884  1.00  0.00     0.211 HD
ENDBRANCH   9  36
ENDBRANCH   1   4
BRANCH   1  38
ATOM     38  O   UNL     1     -47.215  32.462  24.486  1.00  0.00    -0.491 OA
BRANCH  38  39
ATOM     39  C   UNL     1     -47.600  33.373  25.430  1.00  0.00     0.121 A 
ATOM     40  C   UNL     1     -48.881  33.510  25.954  1.00  0.00    -0.019 A 
ATOM     41  C   UNL     1     -46.585  34.233  25.867  1.00  0.00     0.007 A 
ATOM     42  C   UNL     1     -49.149  34.538  26.858  1.00  0.00    -0.049 A 
ATOM     43  H   UNL     1     -49.693  32.849  25.671  1.00  0.00     0.066 H 
ATOM     44  C   UNL     1     -46.825  35.266  26.762  1.00  0.00     0.076 A 
ATOM     45  H   UNL     1     -45.579  34.113  25.470  1.00  0.00     0.069 H 
ATOM     46  C   UNL     1     -48.133  35.422  27.252  1.00  0.00     0.001 A 
ATOM     47  H   UNL     1     -50.162  34.653  27.240  1.00  0.00     0.063 H 
ATOM     48  N   UNL     1     -45.818  36.087  27.124  1.00  0.00    -0.231 NA
ATOM     49  C   UNL     1     -48.378  36.475  28.136  1.00  0.00    -0.049 A 
ATOM     50  C   UNL     1     -46.061  37.085  28.003  1.00  0.00     0.129 A 
ATOM     51  C   UNL     1     -47.333  37.312  28.513  1.00  0.00    -0.019 A 
ATOM     52  H   UNL     1     -49.372  36.643  28.543  1.00  0.00     0.063 H 
ATOM     53  H   UNL     1     -47.509  38.113  29.223  1.00  0.00     0.066 H 
BRANCH  50  54
ATOM     54  N   UNL     1     -44.992  37.893  28.439  1.00  0.00    -0.356 N 
ATOM     55  C   UNL     1     -44.726  38.237  29.809  1.00  0.00     0.021 C 
ATOM     56  C   UNL     1     -44.732  39.229  27.985  1.00  0.00     0.021 C 
ATOM     57  C   UNL     1     -43.907  39.411  29.262  1.00  0.00    -0.018 C 
ATOM     58  H   UNL     1     -44.161  37.475  30.350  1.00  0.00     0.049 H 
ATOM     59  H   UNL     1     -45.629  38.518  30.360  1.00  0.00     0.049 H 
ATOM     60  H   UNL     1     -45.627  39.854  27.921  1.00  0.00     0.049 H 
ATOM     61  H   UNL     1     -44.171  39.264  27.047  1.00  0.00     0.049 H 
ATOM     62  H   UNL     1     -44.037  40.364  29.781  1.00  0.00     0.030 H 
ATOM     63  H   UNL     1     -42.839  39.200  29.145  1.00  0.00     0.030 H 
ENDBRANCH  50  54
ENDBRANCH  38  39
ENDBRANCH   1  38
TORSDOF 8
ENDMDL
