MODEL 1
REMARK VINA RESULT:     -10.5      0.000      0.000
REMARK SMILES CCNc1ccc2ccc(CC[C@H]3C[C@@H](n4cc(-n5cccn5)c5c(N)ncnc54)C[C@@H]3O)cc2n1
REMARK SMILES IDX 11 1 10 4 4 5 5 6 36 7 6 8 35 10 7 11 34 13 8 14 9 16 3 19
REMARK SMILES IDX 2 21 1 24 12 28 13 31 14 32 32 33 15 35 31 38 33 43 16 45
REMARK SMILES IDX 17 46 30 47 18 48 24 50 29 51 25 52 28 53 27 54 19 56 20 57
REMARK SMILES IDX 23 58 21 59 22 61 26 64
REMARK H PARENT 11 2 11 3 5 9 6 12 34 15 8 17 9 18 3 20 2 22 2 23 1 25 1 26
REMARK H PARENT 1 27 12 29 12 30 13 34 14 36 14 37 32 39 15 40 31 41 31 42
REMARK H PARENT 33 44 17 49 28 55 20 60 21 62 22 63 26 65 26 66
REMARK Flexibility Score: inf
ROOT
ATOM      1  C   UNL     1     -47.181  37.614  27.528  1.00  0.00    -0.027 C 
ATOM      2  H   UNL     1     -47.846  37.248  28.322  1.00  0.00     0.032 H 
ATOM      3  H   UNL     1     -47.781  38.357  26.988  1.00  0.00     0.032 H 
ENDROOT
BRANCH   1   4
ATOM      4  C   UNL     1     -46.000  38.271  28.188  1.00  0.00    -0.046 A 
ATOM      5  C   UNL     1     -42.758  41.758  28.119  1.00  0.00     0.126 A 
ATOM      6  C   UNL     1     -42.120  41.257  29.249  1.00  0.00    -0.019 A 
ATOM      7  N   UNL     1     -43.866  41.175  27.624  1.00  0.00    -0.231 NA
ATOM      8  C   UNL     1     -42.612  40.107  29.860  1.00  0.00    -0.049 A 
ATOM      9  H   UNL     1     -41.246  41.757  29.653  1.00  0.00     0.066 H 
ATOM     10  C   UNL     1     -44.347  40.067  28.209  1.00  0.00     0.073 A 
ATOM     11  C   UNL     1     -43.743  39.479  29.334  1.00  0.00     0.000 A 
ATOM     12  H   UNL     1     -42.108  39.709  30.737  1.00  0.00     0.063 H 
ATOM     13  C   UNL     1     -45.474  39.465  27.672  1.00  0.00    -0.033 A 
ATOM     14  C   UNL     1     -44.276  38.302  29.886  1.00  0.00    -0.053 A 
ATOM     15  H   UNL     1     -45.937  39.939  26.811  1.00  0.00     0.065 H 
ATOM     16  C   UNL     1     -45.395  37.698  29.311  1.00  0.00    -0.058 A 
ATOM     17  H   UNL     1     -43.815  37.845  30.759  1.00  0.00     0.063 H 
ATOM     18  H   UNL     1     -45.788  36.780  29.742  1.00  0.00     0.063 H 
BRANCH   5  19
ATOM     19  N   UNL     1     -42.228  42.916  27.521  1.00  0.00    -0.370 N 
ATOM     20  H   UNL     1     -41.439  43.225  28.083  1.00  0.00     0.162 HD
BRANCH  19  21
ATOM     21  C   UNL     1     -41.837  42.773  26.116  1.00  0.00     0.013 C 
ATOM     22  H   UNL     1     -40.816  43.161  26.016  1.00  0.00     0.049 H 
ATOM     23  H   UNL     1     -41.797  41.724  25.803  1.00  0.00     0.049 H 
BRANCH  21  24
ATOM     24  C   UNL     1     -42.739  43.595  25.208  1.00  0.00    -0.048 C 
ATOM     25  H   UNL     1     -42.166  44.256  24.552  1.00  0.00     0.025 H 
ATOM     26  H   UNL     1     -43.351  42.945  24.574  1.00  0.00     0.025 H 
ATOM     27  H   UNL     1     -43.412  44.217  25.807  1.00  0.00     0.025 H 
ENDBRANCH  21  24
ENDBRANCH  19  21
ENDBRANCH   5  19
ENDBRANCH   1   4
BRANCH   1  28
ATOM     28  C   UNL     1     -46.834  36.432  26.609  1.00  0.00    -0.044 C 
ATOM     29  H   UNL     1     -47.253  36.608  25.609  1.00  0.00     0.027 H 
ATOM     30  H   UNL     1     -45.743  36.451  26.481  1.00  0.00     0.027 H 
BRANCH  28  31
ATOM     31  C   UNL     1     -47.207  35.008  27.056  1.00  0.00    -0.013 C 
ATOM     32  C   UNL     1     -47.793  34.093  25.977  1.00  0.00    -0.027 C 
ATOM     33  C   UNL     1     -46.071  34.194  27.707  1.00  0.00     0.059 C 
ATOM     34  H   UNL     1     -47.990  35.141  27.819  1.00  0.00     0.033 H 
ATOM     35  C   UNL     1     -47.580  32.692  26.558  1.00  0.00     0.038 C 
ATOM     36  H   UNL     1     -47.276  34.184  25.018  1.00  0.00     0.029 H 
ATOM     37  H   UNL     1     -48.852  34.312  25.800  1.00  0.00     0.029 H 
ATOM     38  C   UNL     1     -46.157  32.782  27.120  1.00  0.00    -0.006 C 
ATOM     39  H   UNL     1     -45.073  34.613  27.567  1.00  0.00     0.060 H 
ATOM     40  H   UNL     1     -48.265  32.536  27.403  1.00  0.00     0.054 H 
ATOM     41  H   UNL     1     -45.965  31.996  27.858  1.00  0.00     0.031 H 
ATOM     42  H   UNL     1     -45.411  32.690  26.324  1.00  0.00     0.031 H 
BRANCH  33  43
ATOM     43  O   UNL     1     -46.298  34.115  29.114  1.00  0.00    -0.393 OA
ATOM     44  H   UNL     1     -46.088  33.206  29.390  1.00  0.00     0.210 HD
ENDBRANCH  33  43
BRANCH  35  45
ATOM     45  N   UNL     1     -47.854  31.635  25.603  1.00  0.00    -0.327 N 
ATOM     46  C   UNL     1     -48.697  30.568  25.752  1.00  0.00     0.033 A 
ATOM     47  C   UNL     1     -47.264  31.570  24.361  1.00  0.00     0.148 A 
ATOM     48  C   UNL     1     -48.620  29.788  24.609  1.00  0.00     0.095 A 
ATOM     49  H   UNL     1     -49.257  30.396  26.664  1.00  0.00     0.084 H 
ATOM     50  C   UNL     1     -47.767  30.462  23.679  1.00  0.00     0.087 A 
ATOM     51  N   UNL     1     -46.369  32.459  23.899  1.00  0.00    -0.218 NA
ATOM     52  C   UNL     1     -47.354  30.342  22.340  1.00  0.00     0.138 A 
ATOM     53  C   UNL     1     -45.997  32.191  22.643  1.00  0.00     0.120 A 
ATOM     54  N   UNL     1     -46.444  31.206  21.847  1.00  0.00    -0.219 NA
ATOM     55  H   UNL     1     -45.257  32.856  22.209  1.00  0.00     0.106 H 
BRANCH  48  56
ATOM     56  N   UNL     1     -49.300  28.540  24.470  1.00  0.00    -0.239 N 
ATOM     57  C   UNL     1     -49.349  27.496  25.370  1.00  0.00     0.031 A 
ATOM     58  N   UNL     1     -50.071  28.259  23.379  1.00  0.00    -0.176 NA
ATOM     59  C   UNL     1     -50.090  26.489  24.804  1.00  0.00    -0.024 A 
ATOM     60  H   UNL     1     -48.896  27.571  26.346  1.00  0.00     0.084 H 
ATOM     61  C   UNL     1     -50.507  27.016  23.577  1.00  0.00     0.049 A 
ATOM     62  H   UNL     1     -50.325  25.527  25.237  1.00  0.00     0.066 H 
ATOM     63  H   UNL     1     -51.128  26.552  22.822  1.00  0.00     0.086 H 
ENDBRANCH  48  56
BRANCH  52  64
ATOM     64  N   UNL     1     -47.869  29.438  21.417  1.00  0.00    -0.383 N 
ATOM     65  H   UNL     1     -48.135  28.556  21.838  1.00  0.00     0.158 HD
ATOM     66  H   UNL     1     -48.622  29.895  20.909  1.00  0.00     0.158 HD
ENDBRANCH  52  64
ENDBRANCH  35  45
ENDBRANCH  28  31
ENDBRANCH   1  28
TORSDOF 10
ENDMDL
MODEL 2
REMARK VINA RESULT:     -10.4      1.843     12.026
REMARK SMILES CCNc1ccc2ccc(CC[C@H]3C[C@@H](n4cc(-n5cccn5)c5c(N)ncnc54)C[C@@H]3O)cc2n1
REMARK SMILES IDX 11 1 10 4 4 5 5 6 36 7 6 8 35 10 7 11 34 13 8 14 9 16 3 19
REMARK SMILES IDX 2 21 1 24 12 28 13 31 14 32 32 33 15 35 31 38 33 43 16 45
REMARK SMILES IDX 17 46 30 47 18 48 24 50 29 51 25 52 28 53 27 54 19 56 20 57
REMARK SMILES IDX 23 58 21 59 22 61 26 64
REMARK H PARENT 11 2 11 3 5 9 6 12 34 15 8 17 9 18 3 20 2 22 2 23 1 25 1 26
REMARK H PARENT 1 27 12 29 12 30 13 34 14 36 14 37 32 39 15 40 31 41 31 42
REMARK H PARENT 33 44 17 49 28 55 20 60 21 62 22 63 26 65 26 66
REMARK Flexibility Score: inf
ROOT
ATOM      1  C   UNL     1     -47.917  33.827  26.582  1.00  0.00    -0.027 C 
ATOM      2  H   UNL     1     -48.513  34.572  26.038  1.00  0.00     0.032 H 
ATOM      3  H   UNL     1     -48.546  33.541  27.434  1.00  0.00     0.032 H 
ENDROOT
BRANCH   1   4
ATOM      4  C   UNL     1     -47.709  32.652  25.665  1.00  0.00    -0.046 A 
ATOM      5  C   UNL     1     -48.906  28.200  24.473  1.00  0.00     0.126 A 
ATOM      6  C   UNL     1     -47.933  28.150  23.479  1.00  0.00    -0.019 A 
ATOM      7  N   UNL     1     -49.103  29.313  25.204  1.00  0.00    -0.231 NA
ATOM      8  C   UNL     1     -47.119  29.258  23.262  1.00  0.00    -0.049 A 
ATOM      9  H   UNL     1     -47.808  27.256  22.878  1.00  0.00     0.066 H 
ATOM     10  C   UNL     1     -48.324  30.385  24.998  1.00  0.00     0.073 A 
ATOM     11  C   UNL     1     -47.298  30.406  24.038  1.00  0.00     0.000 A 
ATOM     12  H   UNL     1     -46.352  29.217  22.493  1.00  0.00     0.063 H 
ATOM     13  C   UNL     1     -48.523  31.514  25.777  1.00  0.00    -0.033 A 
ATOM     14  C   UNL     1     -46.495  31.549  23.888  1.00  0.00    -0.053 A 
ATOM     15  H   UNL     1     -49.329  31.488  26.506  1.00  0.00     0.065 H 
ATOM     16  C   UNL     1     -46.696  32.664  24.702  1.00  0.00    -0.058 A 
ATOM     17  H   UNL     1     -45.702  31.572  23.143  1.00  0.00     0.063 H 
ATOM     18  H   UNL     1     -46.058  33.536  24.583  1.00  0.00     0.063 H 
BRANCH   5  19
ATOM     19  N   UNL     1     -49.704  27.058  24.672  1.00  0.00    -0.370 N 
ATOM     20  H   UNL     1     -49.393  26.343  24.021  1.00  0.00     0.162 HD
BRANCH  19  21
ATOM     21  C   UNL     1     -49.721  26.538  26.042  1.00  0.00     0.013 C 
ATOM     22  H   UNL     1     -49.746  27.399  26.722  1.00  0.00     0.049 H 
ATOM     23  H   UNL     1     -50.625  25.957  26.253  1.00  0.00     0.049 H 
BRANCH  21  24
ATOM     24  C   UNL     1     -48.460  25.742  26.343  1.00  0.00    -0.048 C 
ATOM     25  H   UNL     1     -48.528  25.216  27.299  1.00  0.00     0.025 H 
ATOM     26  H   UNL     1     -48.275  24.995  25.565  1.00  0.00     0.025 H 
ATOM     27  H   UNL     1     -47.593  26.409  26.387  1.00  0.00     0.025 H 
ENDBRANCH  21  24
ENDBRANCH  19  21
ENDBRANCH   5  19
ENDBRANCH   1   4
BRANCH   1  28
ATOM     28  C   UNL     1     -46.627  34.503  27.069  1.00  0.00    -0.044 C 
ATOM     29  H   UNL     1     -46.037  33.788  27.658  1.00  0.00     0.027 H 
ATOM     30  H   UNL     1     -46.029  34.711  26.170  1.00  0.00     0.027 H 
BRANCH  28  31
ATOM     31  C   UNL     1     -46.728  35.823  27.854  1.00  0.00    -0.013 C 
ATOM     32  C   UNL     1     -45.550  36.789  27.706  1.00  0.00    -0.027 C 
ATOM     33  C   UNL     1     -47.987  36.669  27.577  1.00  0.00     0.059 C 
ATOM     34  H   UNL     1     -46.764  35.526  28.914  1.00  0.00     0.033 H 
ATOM     35  C   UNL     1     -46.145  38.130  28.147  1.00  0.00     0.038 C 
ATOM     36  H   UNL     1     -45.187  36.861  26.677  1.00  0.00     0.029 H 
ATOM     37  H   UNL     1     -44.703  36.486  28.331  1.00  0.00     0.029 H 
ATOM     38  C   UNL     1     -47.517  38.122  27.464  1.00  0.00    -0.006 C 
ATOM     39  H   UNL     1     -48.548  36.372  26.689  1.00  0.00     0.060 H 
ATOM     40  H   UNL     1     -46.311  38.119  29.233  1.00  0.00     0.054 H 
ATOM     41  H   UNL     1     -48.204  38.835  27.932  1.00  0.00     0.031 H 
ATOM     42  H   UNL     1     -47.432  38.379  26.403  1.00  0.00     0.031 H 
BRANCH  33  43
ATOM     43  O   UNL     1     -48.875  36.565  28.689  1.00  0.00    -0.393 OA
ATOM     44  H   UNL     1     -48.598  37.230  29.343  1.00  0.00     0.210 HD
ENDBRANCH  33  43
BRANCH  35  45
ATOM     45  N   UNL     1     -45.271  39.255  27.874  1.00  0.00    -0.327 N 
ATOM     46  C   UNL     1     -45.360  40.158  26.850  1.00  0.00     0.033 A 
ATOM     47  C   UNL     1     -44.182  39.569  28.655  1.00  0.00     0.148 A 
ATOM     48  C   UNL     1     -44.294  41.039  26.952  1.00  0.00     0.095 A 
ATOM     49  H   UNL     1     -46.130  40.097  26.090  1.00  0.00     0.084 H 
ATOM     50  C   UNL     1     -43.579  40.721  28.149  1.00  0.00     0.087 A 
ATOM     51  N   UNL     1     -43.799  38.873  29.739  1.00  0.00    -0.218 NA
ATOM     52  C   UNL     1     -42.528  41.240  28.926  1.00  0.00     0.138 A 
ATOM     53  C   UNL     1     -42.743  39.426  30.344  1.00  0.00     0.120 A 
ATOM     54  N   UNL     1     -42.106  40.560  30.010  1.00  0.00    -0.219 NA
ATOM     55  H   UNL     1     -42.362  38.904  31.217  1.00  0.00     0.106 H 
BRANCH  48  56
ATOM     56  N   UNL     1     -44.027  42.052  25.982  1.00  0.00    -0.239 N 
ATOM     57  C   UNL     1     -44.835  42.470  24.946  1.00  0.00     0.031 A 
ATOM     58  N   UNL     1     -42.886  42.801  26.021  1.00  0.00    -0.176 NA
ATOM     59  C   UNL     1     -44.159  43.442  24.251  1.00  0.00    -0.024 A 
ATOM     60  H   UNL     1     -45.832  42.079  24.815  1.00  0.00     0.084 H 
ATOM     61  C   UNL     1     -42.964  43.602  24.959  1.00  0.00     0.049 A 
ATOM     62  H   UNL     1     -44.501  43.982  23.380  1.00  0.00     0.066 H 
ATOM     63  H   UNL     1     -42.148  44.284  24.758  1.00  0.00     0.086 H 
ENDBRANCH  48  56
BRANCH  52  64
ATOM     64  N   UNL     1     -41.912  42.471  28.725  1.00  0.00    -0.383 N 
ATOM     65  H   UNL     1     -42.308  42.986  27.947  1.00  0.00     0.158 HD
ATOM     66  H   UNL     1     -41.924  42.981  29.604  1.00  0.00     0.158 HD
ENDBRANCH  52  64
ENDBRANCH  35  45
ENDBRANCH  28  31
ENDBRANCH   1  28
TORSDOF 10
ENDMDL
MODEL 3
REMARK VINA RESULT:     -10.4      2.018     11.419
REMARK SMILES CCNc1ccc2ccc(CC[C@H]3C[C@@H](n4cc(-n5cccn5)c5c(N)ncnc54)C[C@@H]3O)cc2n1
REMARK SMILES IDX 11 1 10 4 4 5 5 6 36 7 6 8 35 10 7 11 34 13 8 14 9 16 3 19
REMARK SMILES IDX 2 21 1 24 12 28 13 31 14 32 32 33 15 35 31 38 33 43 16 45
REMARK SMILES IDX 17 46 30 47 18 48 24 50 29 51 25 52 28 53 27 54 19 56 20 57
REMARK SMILES IDX 23 58 21 59 22 61 26 64
REMARK H PARENT 11 2 11 3 5 9 6 12 34 15 8 17 9 18 3 20 2 22 2 23 1 25 1 26
REMARK H PARENT 1 27 12 29 12 30 13 34 14 36 14 37 32 39 15 40 31 41 31 42
REMARK H PARENT 33 44 17 49 28 55 20 60 21 62 22 63 26 65 26 66
REMARK Flexibility Score: inf
ROOT
ATOM      1  C   UNL     1     -45.919  34.282  26.342  1.00  0.00    -0.027 C 
ATOM      2  H   UNL     1     -44.959  33.799  26.113  1.00  0.00     0.032 H 
ATOM      3  H   UNL     1     -45.876  35.243  25.814  1.00  0.00     0.032 H 
ENDROOT
BRANCH   1   4
ATOM      4  C   UNL     1     -47.011  33.418  25.773  1.00  0.00    -0.046 A 
ATOM      5  C   UNL     1     -48.414  30.412  22.356  1.00  0.00     0.126 A 
ATOM      6  C   UNL     1     -49.705  30.350  22.870  1.00  0.00    -0.019 A 
ATOM      7  N   UNL     1     -47.453  31.137  22.961  1.00  0.00    -0.231 NA
ATOM      8  C   UNL     1     -50.025  31.082  24.010  1.00  0.00    -0.049 A 
ATOM      9  H   UNL     1     -50.458  29.736  22.388  1.00  0.00     0.066 H 
ATOM     10  C   UNL     1     -47.754  31.843  24.061  1.00  0.00     0.073 A 
ATOM     11  C   UNL     1     -49.041  31.860  24.626  1.00  0.00     0.000 A 
ATOM     12  H   UNL     1     -51.036  31.042  24.407  1.00  0.00     0.063 H 
ATOM     13  C   UNL     1     -46.761  32.604  24.658  1.00  0.00    -0.033 A 
ATOM     14  C   UNL     1     -49.303  32.642  25.763  1.00  0.00    -0.053 A 
ATOM     15  H   UNL     1     -45.767  32.569  24.218  1.00  0.00     0.065 H 
ATOM     16  C   UNL     1     -48.294  33.422  26.329  1.00  0.00    -0.058 A 
ATOM     17  H   UNL     1     -50.296  32.656  26.206  1.00  0.00     0.063 H 
ATOM     18  H   UNL     1     -48.515  34.032  27.202  1.00  0.00     0.063 H 
BRANCH   5  19
ATOM     19  N   UNL     1     -48.128  29.667  21.197  1.00  0.00    -0.370 N 
ATOM     20  H   UNL     1     -48.231  28.682  21.426  1.00  0.00     0.162 HD
BRANCH  19  21
ATOM     21  C   UNL     1     -48.930  30.011  20.019  1.00  0.00     0.013 C 
ATOM     22  H   UNL     1     -48.709  29.270  19.241  1.00  0.00     0.049 H 
ATOM     23  H   UNL     1     -50.005  29.936  20.215  1.00  0.00     0.049 H 
BRANCH  21  24
ATOM     24  C   UNL     1     -48.552  31.381  19.479  1.00  0.00    -0.048 C 
ATOM     25  H   UNL     1     -49.432  31.995  19.269  1.00  0.00     0.025 H 
ATOM     26  H   UNL     1     -47.930  31.926  20.196  1.00  0.00     0.025 H 
ATOM     27  H   UNL     1     -47.985  31.278  18.548  1.00  0.00     0.025 H 
ENDBRANCH  21  24
ENDBRANCH  19  21
ENDBRANCH   5  19
ENDBRANCH   1   4
BRANCH   1  28
ATOM     28  C   UNL     1     -45.996  34.506  27.860  1.00  0.00    -0.044 C 
ATOM     29  H   UNL     1     -46.703  33.791  28.302  1.00  0.00     0.027 H 
ATOM     30  H   UNL     1     -45.010  34.235  28.262  1.00  0.00     0.027 H 
BRANCH  28  31
ATOM     31  C   UNL     1     -46.324  35.913  28.390  1.00  0.00    -0.013 C 
ATOM     32  C   UNL     1     -45.313  37.013  28.055  1.00  0.00    -0.027 C 
ATOM     33  C   UNL     1     -47.696  36.480  27.973  1.00  0.00     0.059 C 
ATOM     34  H   UNL     1     -46.333  35.813  29.486  1.00  0.00     0.033 H 
ATOM     35  C   UNL     1     -46.124  38.298  28.248  1.00  0.00     0.038 C 
ATOM     36  H   UNL     1     -44.945  36.953  27.028  1.00  0.00     0.029 H 
ATOM     37  H   UNL     1     -44.442  36.970  28.718  1.00  0.00     0.029 H 
ATOM     38  C   UNL     1     -47.463  37.944  27.591  1.00  0.00    -0.006 C 
ATOM     39  H   UNL     1     -48.184  35.939  27.161  1.00  0.00     0.060 H 
ATOM     40  H   UNL     1     -46.309  38.460  29.319  1.00  0.00     0.054 H 
ATOM     41  H   UNL     1     -48.264  38.611  27.926  1.00  0.00     0.031 H 
ATOM     42  H   UNL     1     -47.398  38.013  26.500  1.00  0.00     0.031 H 
BRANCH  33  43
ATOM     43  O   UNL     1     -48.579  36.439  29.094  1.00  0.00    -0.393 OA
ATOM     44  H   UNL     1     -48.871  35.516  29.198  1.00  0.00     0.210 HD
ENDBRANCH  33  43
BRANCH  35  45
ATOM     45  N   UNL     1     -45.437  39.481  27.765  1.00  0.00    -0.327 N 
ATOM     46  C   UNL     1     -45.775  40.274  26.703  1.00  0.00     0.033 A 
ATOM     47  C   UNL     1     -44.292  39.977  28.347  1.00  0.00     0.148 A 
ATOM     48  C   UNL     1     -44.818  41.268  26.578  1.00  0.00     0.095 A 
ATOM     49  H   UNL     1     -46.633  40.064  26.075  1.00  0.00     0.084 H 
ATOM     50  C   UNL     1     -43.908  41.135  27.673  1.00  0.00     0.087 A 
ATOM     51  N   UNL     1     -43.680  39.425  29.409  1.00  0.00    -0.218 NA
ATOM     52  C   UNL     1     -42.825  41.831  28.242  1.00  0.00     0.138 A 
ATOM     53  C   UNL     1     -42.621  40.138  29.805  1.00  0.00     0.120 A 
ATOM     54  N   UNL     1     -42.177  41.299  29.297  1.00  0.00    -0.219 NA
ATOM     55  H   UNL     1     -42.062  39.740  30.646  1.00  0.00     0.106 H 
BRANCH  48  56
ATOM     56  N   UNL     1     -44.811  42.212  25.507  1.00  0.00    -0.239 N 
ATOM     57  C   UNL     1     -43.985  42.238  24.403  1.00  0.00     0.031 A 
ATOM     58  N   UNL     1     -45.726  43.223  25.435  1.00  0.00    -0.176 NA
ATOM     59  C   UNL     1     -44.317  43.342  23.656  1.00  0.00    -0.024 A 
ATOM     60  H   UNL     1     -43.268  41.454  24.217  1.00  0.00     0.084 H 
ATOM     61  C   UNL     1     -45.394  43.910  24.343  1.00  0.00     0.049 A 
ATOM     62  H   UNL     1     -43.865  43.664  22.729  1.00  0.00     0.066 H 
ATOM     63  H   UNL     1     -45.969  44.791  24.084  1.00  0.00     0.086 H 
ENDBRANCH  48  56
BRANCH  52  64
ATOM     64  N   UNL     1     -42.393  43.097  27.861  1.00  0.00    -0.383 N 
ATOM     65  H   UNL     1     -41.749  43.073  27.079  1.00  0.00     0.158 HD
ATOM     66  H   UNL     1     -43.211  43.679  27.703  1.00  0.00     0.158 HD
ENDBRANCH  52  64
ENDBRANCH  35  45
ENDBRANCH  28  31
ENDBRANCH   1  28
TORSDOF 10
ENDMDL
MODEL 4
REMARK VINA RESULT:      -9.9      1.674      2.850
REMARK SMILES CCNc1ccc2ccc(CC[C@H]3C[C@@H](n4cc(-n5cccn5)c5c(N)ncnc54)C[C@@H]3O)cc2n1
REMARK SMILES IDX 11 1 10 4 4 5 5 6 36 7 6 8 35 10 7 11 34 13 8 14 9 16 3 19
REMARK SMILES IDX 2 21 1 24 12 28 13 31 14 32 32 33 15 35 31 38 33 43 16 45
REMARK SMILES IDX 17 46 30 47 18 48 24 50 29 51 25 52 28 53 27 54 19 56 20 57
REMARK SMILES IDX 23 58 21 59 22 61 26 64
REMARK H PARENT 11 2 11 3 5 9 6 12 34 15 8 17 9 18 3 20 2 22 2 23 1 25 1 26
REMARK H PARENT 1 27 12 29 12 30 13 34 14 36 14 37 32 39 15 40 31 41 31 42
REMARK H PARENT 33 44 17 49 28 55 20 60 21 62 22 63 26 65 26 66
REMARK Flexibility Score: inf
ROOT
ATOM      1  C   UNL     1     -47.035  36.570  26.380  1.00  0.00    -0.027 C 
ATOM      2  H   UNL     1     -47.547  37.348  25.798  1.00  0.00     0.032 H 
ATOM      3  H   UNL     1     -46.437  36.023  25.640  1.00  0.00     0.032 H 
ENDROOT
BRANCH   1   4
ATOM      4  C   UNL     1     -46.140  37.259  27.374  1.00  0.00    -0.046 A 
ATOM      5  C   UNL     1     -43.309  40.955  28.374  1.00  0.00     0.126 A 
ATOM      6  C   UNL     1     -42.967  40.422  29.613  1.00  0.00    -0.019 A 
ATOM      7  N   UNL     1     -44.185  40.333  27.563  1.00  0.00    -0.231 NA
ATOM      8  C   UNL     1     -43.509  39.203  30.008  1.00  0.00    -0.049 A 
ATOM      9  H   UNL     1     -42.283  40.952  30.268  1.00  0.00     0.066 H 
ATOM     10  C   UNL     1     -44.714  39.158  27.939  1.00  0.00     0.073 A 
ATOM     11  C   UNL     1     -44.396  38.537  29.159  1.00  0.00     0.000 A 
ATOM     12  H   UNL     1     -43.234  38.782  30.972  1.00  0.00     0.063 H 
ATOM     13  C   UNL     1     -45.595  38.518  27.081  1.00  0.00    -0.033 A 
ATOM     14  C   UNL     1     -44.958  37.292  29.485  1.00  0.00    -0.053 A 
ATOM     15  H   UNL     1     -45.841  39.017  26.147  1.00  0.00     0.065 H 
ATOM     16  C   UNL     1     -45.822  36.654  28.593  1.00  0.00    -0.058 A 
ATOM     17  H   UNL     1     -44.719  36.808  30.429  1.00  0.00     0.063 H 
ATOM     18  H   UNL     1     -46.239  35.684  28.854  1.00  0.00     0.063 H 
BRANCH   5  19
ATOM     19  N   UNL     1     -42.734  42.184  28.002  1.00  0.00    -0.370 N 
ATOM     20  H   UNL     1     -41.724  42.087  28.063  1.00  0.00     0.162 HD
BRANCH  19  21
ATOM     21  C   UNL     1     -43.129  42.685  26.683  1.00  0.00     0.013 C 
ATOM     22  H   UNL     1     -43.722  41.902  26.196  1.00  0.00     0.049 H 
ATOM     23  H   UNL     1     -43.780  43.563  26.752  1.00  0.00     0.049 H 
BRANCH  21  24
ATOM     24  C   UNL     1     -41.911  42.958  25.813  1.00  0.00    -0.048 C 
ATOM     25  H   UNL     1     -42.038  42.569  24.799  1.00  0.00     0.025 H 
ATOM     26  H   UNL     1     -41.719  44.033  25.735  1.00  0.00     0.025 H 
ATOM     27  H   UNL     1     -41.023  42.485  26.245  1.00  0.00     0.025 H 
ENDBRANCH  21  24
ENDBRANCH  19  21
ENDBRANCH   5  19
ENDBRANCH   1   4
BRANCH   1  28
ATOM     28  C   UNL     1     -48.100  35.650  26.997  1.00  0.00    -0.044 C 
ATOM     29  H   UNL     1     -48.308  35.969  28.027  1.00  0.00     0.027 H 
ATOM     30  H   UNL     1     -49.028  35.834  26.437  1.00  0.00     0.027 H 
BRANCH  28  31
ATOM     31  C   UNL     1     -47.866  34.129  26.989  1.00  0.00    -0.013 C 
ATOM     32  C   UNL     1     -48.751  33.315  26.042  1.00  0.00    -0.027 C 
ATOM     33  C   UNL     1     -46.423  33.678  26.688  1.00  0.00     0.059 C 
ATOM     34  H   UNL     1     -48.104  33.796  28.011  1.00  0.00     0.033 H 
ATOM     35  C   UNL     1     -47.973  32.004  25.884  1.00  0.00     0.038 C 
ATOM     36  H   UNL     1     -48.882  33.792  25.067  1.00  0.00     0.029 H 
ATOM     37  H   UNL     1     -49.749  33.156  26.465  1.00  0.00     0.029 H 
ATOM     38  C   UNL     1     -46.530  32.496  25.722  1.00  0.00    -0.006 C 
ATOM     39  H   UNL     1     -45.779  34.458  26.278  1.00  0.00     0.060 H 
ATOM     40  H   UNL     1     -48.029  31.428  26.818  1.00  0.00     0.054 H 
ATOM     41  H   UNL     1     -45.809  31.699  25.931  1.00  0.00     0.031 H 
ATOM     42  H   UNL     1     -46.349  32.859  24.705  1.00  0.00     0.031 H 
BRANCH  33  43
ATOM     43  O   UNL     1     -45.813  33.223  27.895  1.00  0.00    -0.393 OA
ATOM     44  H   UNL     1     -45.480  34.008  28.364  1.00  0.00     0.210 HD
ENDBRANCH  33  43
BRANCH  35  45
ATOM     45  N   UNL     1     -48.509  31.150  24.841  1.00  0.00    -0.327 N 
ATOM     46  C   UNL     1     -48.876  31.505  23.571  1.00  0.00     0.033 A 
ATOM     47  C   UNL     1     -48.728  29.801  25.010  1.00  0.00     0.148 A 
ATOM     48  C   UNL     1     -49.372  30.380  22.931  1.00  0.00     0.095 A 
ATOM     49  H   UNL     1     -48.814  32.526  23.216  1.00  0.00     0.084 H 
ATOM     50  C   UNL     1     -49.208  29.268  23.815  1.00  0.00     0.087 A 
ATOM     51  N   UNL     1     -48.486  29.131  26.150  1.00  0.00    -0.218 NA
ATOM     52  C   UNL     1     -49.351  27.869  23.796  1.00  0.00     0.138 A 
ATOM     53  C   UNL     1     -48.735  27.823  26.025  1.00  0.00     0.120 A 
ATOM     54  N   UNL     1     -49.134  27.165  24.925  1.00  0.00    -0.219 NA
ATOM     55  H   UNL     1     -48.583  27.219  26.914  1.00  0.00     0.106 H 
BRANCH  48  56
ATOM     56  N   UNL     1     -49.937  30.416  21.620  1.00  0.00    -0.239 N 
ATOM     57  C   UNL     1     -49.449  31.060  20.503  1.00  0.00     0.031 A 
ATOM     58  N   UNL     1     -51.069  29.721  21.307  1.00  0.00    -0.176 NA
ATOM     59  C   UNL     1     -50.335  30.848  19.475  1.00  0.00    -0.024 A 
ATOM     60  H   UNL     1     -48.499  31.571  20.516  1.00  0.00     0.084 H 
ATOM     61  C   UNL     1     -51.314  30.018  20.031  1.00  0.00     0.049 A 
ATOM     62  H   UNL     1     -50.260  31.213  18.461  1.00  0.00     0.066 H 
ATOM     63  H   UNL     1     -52.190  29.599  19.555  1.00  0.00     0.086 H 
ENDBRANCH  48  56
BRANCH  52  64
ATOM     64  N   UNL     1     -49.626  27.103  22.668  1.00  0.00    -0.383 N 
ATOM     65  H   UNL     1     -50.012  26.194  22.895  1.00  0.00     0.158 HD
ATOM     66  H   UNL     1     -50.210  27.653  22.043  1.00  0.00     0.158 HD
ENDBRANCH  52  64
ENDBRANCH  35  45
ENDBRANCH  28  31
ENDBRANCH   1  28
TORSDOF 10
ENDMDL
MODEL 5
REMARK VINA RESULT:      -9.7      1.746      2.493
REMARK SMILES CCNc1ccc2ccc(CC[C@H]3C[C@@H](n4cc(-n5cccn5)c5c(N)ncnc54)C[C@@H]3O)cc2n1
REMARK SMILES IDX 11 1 10 4 4 5 5 6 36 7 6 8 35 10 7 11 34 13 8 14 9 16 3 19
REMARK SMILES IDX 2 21 1 24 12 28 13 31 14 32 32 33 15 35 31 38 33 43 16 45
REMARK SMILES IDX 17 46 30 47 18 48 24 50 29 51 25 52 28 53 27 54 19 56 20 57
REMARK SMILES IDX 23 58 21 59 22 61 26 64
REMARK H PARENT 11 2 11 3 5 9 6 12 34 15 8 17 9 18 3 20 2 22 2 23 1 25 1 26
REMARK H PARENT 1 27 12 29 12 30 13 34 14 36 14 37 32 39 15 40 31 41 31 42
REMARK H PARENT 33 44 17 49 28 55 20 60 21 62 22 63 26 65 26 66
REMARK Flexibility Score: inf
ROOT
ATOM      1  C   UNL     1     -46.037  35.706  28.080  1.00  0.00    -0.027 C 
ATOM      2  H   UNL     1     -45.314  35.575  28.897  1.00  0.00     0.032 H 
ATOM      3  H   UNL     1     -47.016  35.564  28.554  1.00  0.00     0.032 H 
ENDROOT
BRANCH   1   4
ATOM      4  C   UNL     1     -45.899  37.115  27.571  1.00  0.00    -0.046 A 
ATOM      5  C   UNL     1     -43.678  41.317  27.872  1.00  0.00     0.126 A 
ATOM      6  C   UNL     1     -44.513  41.884  26.915  1.00  0.00    -0.019 A 
ATOM      7  N   UNL     1     -43.795  40.022  28.224  1.00  0.00    -0.231 NA
ATOM      8  C   UNL     1     -45.515  41.111  26.335  1.00  0.00    -0.049 A 
ATOM      9  H   UNL     1     -44.385  42.920  26.620  1.00  0.00     0.066 H 
ATOM     10  C   UNL     1     -44.757  39.271  27.668  1.00  0.00     0.073 A 
ATOM     11  C   UNL     1     -45.662  39.776  26.718  1.00  0.00     0.000 A 
ATOM     12  H   UNL     1     -46.174  41.557  25.594  1.00  0.00     0.063 H 
ATOM     13  C   UNL     1     -44.880  37.947  28.060  1.00  0.00    -0.033 A 
ATOM     14  C   UNL     1     -46.667  38.948  26.192  1.00  0.00    -0.053 A 
ATOM     15  H   UNL     1     -44.165  37.568  28.785  1.00  0.00     0.065 H 
ATOM     16  C   UNL     1     -46.789  37.626  26.622  1.00  0.00    -0.058 A 
ATOM     17  H   UNL     1     -47.368  39.332  25.453  1.00  0.00     0.063 H 
ATOM     18  H   UNL     1     -47.581  37.002  26.215  1.00  0.00     0.063 H 
BRANCH   5  19
ATOM     19  N   UNL     1     -42.682  42.130  28.445  1.00  0.00    -0.370 N 
ATOM     20  H   UNL     1     -42.987  42.385  29.380  1.00  0.00     0.162 HD
BRANCH  19  21
ATOM     21  C   UNL     1     -41.340  41.543  28.480  1.00  0.00     0.013 C 
ATOM     22  H   UNL     1     -40.726  42.163  29.144  1.00  0.00     0.049 H 
ATOM     23  H   UNL     1     -41.339  40.537  28.914  1.00  0.00     0.049 H 
BRANCH  21  24
ATOM     24  C   UNL     1     -40.698  41.559  27.101  1.00  0.00    -0.048 C 
ATOM     25  H   UNL     1     -41.290  42.131  26.381  1.00  0.00     0.025 H 
ATOM     26  H   UNL     1     -39.699  42.005  27.140  1.00  0.00     0.025 H 
ATOM     27  H   UNL     1     -40.599  40.538  26.718  1.00  0.00     0.025 H 
ENDBRANCH  21  24
ENDBRANCH  19  21
ENDBRANCH   5  19
ENDBRANCH   1   4
BRANCH   1  28
ATOM     28  C   UNL     1     -45.783  34.612  27.032  1.00  0.00    -0.044 C 
ATOM     29  H   UNL     1     -44.960  34.918  26.373  1.00  0.00     0.027 H 
ATOM     30  H   UNL     1     -45.412  33.737  27.583  1.00  0.00     0.027 H 
BRANCH  28  31
ATOM     31  C   UNL     1     -46.956  34.128  26.162  1.00  0.00    -0.013 C 
ATOM     32  C   UNL     1     -46.825  32.721  25.572  1.00  0.00    -0.027 C 
ATOM     33  C   UNL     1     -48.344  34.161  26.834  1.00  0.00     0.059 C 
ATOM     34  H   UNL     1     -46.991  34.826  25.311  1.00  0.00     0.033 H 
ATOM     35  C   UNL     1     -48.271  32.355  25.225  1.00  0.00     0.038 C 
ATOM     36  H   UNL     1     -46.417  31.999  26.285  1.00  0.00     0.029 H 
ATOM     37  H   UNL     1     -46.173  32.716  24.692  1.00  0.00     0.029 H 
ATOM     38  C   UNL     1     -49.040  32.851  26.455  1.00  0.00    -0.006 C 
ATOM     39  H   UNL     1     -48.321  34.290  27.917  1.00  0.00     0.060 H 
ATOM     40  H   UNL     1     -48.603  32.947  24.360  1.00  0.00     0.054 H 
ATOM     41  H   UNL     1     -50.106  32.976  26.238  1.00  0.00     0.031 H 
ATOM     42  H   UNL     1     -48.943  32.150  27.290  1.00  0.00     0.031 H 
BRANCH  33  43
ATOM     43  O   UNL     1     -49.098  35.247  26.298  1.00  0.00    -0.393 OA
ATOM     44  H   UNL     1     -49.771  35.485  26.959  1.00  0.00     0.210 HD
ENDBRANCH  33  43
BRANCH  35  45
ATOM     45  N   UNL     1     -48.430  30.961  24.856  1.00  0.00    -0.327 N 
ATOM     46  C   UNL     1     -48.614  29.889  25.686  1.00  0.00     0.033 A 
ATOM     47  C   UNL     1     -48.412  30.520  23.552  1.00  0.00     0.148 A 
ATOM     48  C   UNL     1     -48.677  28.742  24.910  1.00  0.00     0.095 A 
ATOM     49  H   UNL     1     -48.639  29.990  26.765  1.00  0.00     0.084 H 
ATOM     50  C   UNL     1     -48.628  29.143  23.538  1.00  0.00     0.087 A 
ATOM     51  N   UNL     1     -48.235  31.317  22.485  1.00  0.00    -0.218 NA
ATOM     52  C   UNL     1     -48.770  28.570  22.261  1.00  0.00     0.138 A 
ATOM     53  C   UNL     1     -48.315  30.640  21.334  1.00  0.00     0.120 A 
ATOM     54  N   UNL     1     -48.583  29.335  21.167  1.00  0.00    -0.219 NA
ATOM     55  H   UNL     1     -48.160  31.215  20.426  1.00  0.00     0.106 H 
BRANCH  48  56
ATOM     56  N   UNL     1     -48.764  27.430  25.465  1.00  0.00    -0.239 N 
ATOM     57  C   UNL     1     -47.937  26.848  26.403  1.00  0.00     0.031 A 
ATOM     58  N   UNL     1     -49.783  26.580  25.143  1.00  0.00    -0.176 NA
ATOM     59  C   UNL     1     -48.381  25.567  26.617  1.00  0.00    -0.024 A 
ATOM     60  H   UNL     1     -47.137  27.402  26.870  1.00  0.00     0.084 H 
ATOM     61  C   UNL     1     -49.519  25.458  25.812  1.00  0.00     0.049 A 
ATOM     62  H   UNL     1     -47.960  24.832  27.288  1.00  0.00     0.066 H 
ATOM     63  H   UNL     1     -50.183  24.611  25.696  1.00  0.00     0.086 H 
ENDBRANCH  48  56
BRANCH  52  64
ATOM     64  N   UNL     1     -49.178  27.265  22.005  1.00  0.00    -0.383 N 
ATOM     65  H   UNL     1     -48.701  26.853  21.212  1.00  0.00     0.158 HD
ATOM     66  H   UNL     1     -49.089  26.729  22.863  1.00  0.00     0.158 HD
ENDBRANCH  52  64
ENDBRANCH  35  45
ENDBRANCH  28  31
ENDBRANCH   1  28
TORSDOF 10
ENDMDL
MODEL 6
REMARK VINA RESULT:      -9.5      2.065     11.638
REMARK SMILES CCNc1ccc2ccc(CC[C@H]3C[C@@H](n4cc(-n5cccn5)c5c(N)ncnc54)C[C@@H]3O)cc2n1
REMARK SMILES IDX 11 1 10 4 4 5 5 6 36 7 6 8 35 10 7 11 34 13 8 14 9 16 3 19
REMARK SMILES IDX 2 21 1 24 12 28 13 31 14 32 32 33 15 35 31 38 33 43 16 45
REMARK SMILES IDX 17 46 30 47 18 48 24 50 29 51 25 52 28 53 27 54 19 56 20 57
REMARK SMILES IDX 23 58 21 59 22 61 26 64
REMARK H PARENT 11 2 11 3 5 9 6 12 34 15 8 17 9 18 3 20 2 22 2 23 1 25 1 26
REMARK H PARENT 1 27 12 29 12 30 13 34 14 36 14 37 32 39 15 40 31 41 31 42
REMARK H PARENT 33 44 17 49 28 55 20 60 21 62 22 63 26 65 26 66
REMARK Flexibility Score: inf
ROOT
ATOM      1  C   UNL     1     -47.758  35.022  26.534  1.00  0.00    -0.027 C 
ATOM      2  H   UNL     1     -47.305  35.853  25.977  1.00  0.00     0.032 H 
ATOM      3  H   UNL     1     -48.828  35.260  26.560  1.00  0.00     0.032 H 
ENDROOT
BRANCH   1   4
ATOM      4  C   UNL     1     -47.519  33.762  25.746  1.00  0.00    -0.046 A 
ATOM      5  C   UNL     1     -49.048  29.428  24.500  1.00  0.00     0.126 A 
ATOM      6  C   UNL     1     -47.891  29.173  23.772  1.00  0.00    -0.019 A 
ATOM      7  N   UNL     1     -49.244  30.611  25.113  1.00  0.00    -0.231 NA
ATOM      8  C   UNL     1     -46.895  30.143  23.707  1.00  0.00    -0.049 A 
ATOM      9  H   UNL     1     -47.763  28.226  23.258  1.00  0.00     0.066 H 
ATOM     10  C   UNL     1     -48.289  31.551  25.052  1.00  0.00     0.073 A 
ATOM     11  C   UNL     1     -47.077  31.361  24.366  1.00  0.00     0.000 A 
ATOM     12  H   UNL     1     -45.986  29.941  23.146  1.00  0.00     0.063 H 
ATOM     13  C   UNL     1     -48.494  32.754  25.710  1.00  0.00    -0.033 A 
ATOM     14  C   UNL     1     -46.103  32.373  24.362  1.00  0.00    -0.053 A 
ATOM     15  H   UNL     1     -49.442  32.891  26.225  1.00  0.00     0.065 H 
ATOM     16  C   UNL     1     -46.321  33.565  25.054  1.00  0.00    -0.058 A 
ATOM     17  H   UNL     1     -45.165  32.233  23.828  1.00  0.00     0.063 H 
ATOM     18  H   UNL     1     -45.551  34.333  25.052  1.00  0.00     0.063 H 
BRANCH   5  19
ATOM     19  N   UNL     1     -50.030  28.421  24.553  1.00  0.00    -0.370 N 
ATOM     20  H   UNL     1     -50.593  28.490  23.710  1.00  0.00     0.162 HD
BRANCH  19  21
ATOM     21  C   UNL     1     -49.520  27.058  24.724  1.00  0.00     0.013 C 
ATOM     22  H   UNL     1     -50.228  26.376  24.238  1.00  0.00     0.049 H 
ATOM     23  H   UNL     1     -48.558  26.910  24.221  1.00  0.00     0.049 H 
BRANCH  21  24
ATOM     24  C   UNL     1     -49.446  26.681  26.196  1.00  0.00    -0.048 C 
ATOM     25  H   UNL     1     -50.430  26.435  26.605  1.00  0.00     0.025 H 
ATOM     26  H   UNL     1     -48.798  25.811  26.344  1.00  0.00     0.025 H 
ATOM     27  H   UNL     1     -49.037  27.512  26.780  1.00  0.00     0.025 H 
ENDBRANCH  21  24
ENDBRANCH  19  21
ENDBRANCH   5  19
ENDBRANCH   1   4
BRANCH   1  28
ATOM     28  C   UNL     1     -47.172  35.017  27.954  1.00  0.00    -0.044 C 
ATOM     29  H   UNL     1     -47.988  35.015  28.688  1.00  0.00     0.027 H 
ATOM     30  H   UNL     1     -46.662  34.051  28.074  1.00  0.00     0.027 H 
BRANCH  28  31
ATOM     31  C   UNL     1     -46.160  36.108  28.345  1.00  0.00    -0.013 C 
ATOM     32  C   UNL     1     -45.938  37.222  27.320  1.00  0.00    -0.027 C 
ATOM     33  C   UNL     1     -46.441  36.831  29.678  1.00  0.00     0.059 C 
ATOM     34  H   UNL     1     -45.199  35.583  28.457  1.00  0.00     0.033 H 
ATOM     35  C   UNL     1     -45.326  38.348  28.159  1.00  0.00     0.038 C 
ATOM     36  H   UNL     1     -46.867  37.564  26.855  1.00  0.00     0.029 H 
ATOM     37  H   UNL     1     -45.270  36.896  26.514  1.00  0.00     0.029 H 
ATOM     38  C   UNL     1     -46.189  38.320  29.426  1.00  0.00    -0.006 C 
ATOM     39  H   UNL     1     -47.442  36.669  30.081  1.00  0.00     0.060 H 
ATOM     40  H   UNL     1     -44.300  38.078  28.446  1.00  0.00     0.054 H 
ATOM     41  H   UNL     1     -45.692  38.822  30.262  1.00  0.00     0.031 H 
ATOM     42  H   UNL     1     -47.152  38.813  29.259  1.00  0.00     0.031 H 
BRANCH  33  43
ATOM     43  O   UNL     1     -45.514  36.375  30.663  1.00  0.00    -0.393 OA
ATOM     44  H   UNL     1     -45.193  37.158  31.142  1.00  0.00     0.210 HD
ENDBRANCH  33  43
BRANCH  35  45
ATOM     45  N   UNL     1     -45.236  39.606  27.442  1.00  0.00    -0.327 N 
ATOM     46  C   UNL     1     -44.134  40.155  26.846  1.00  0.00     0.033 A 
ATOM     47  C   UNL     1     -46.309  40.450  27.264  1.00  0.00     0.148 A 
ATOM     48  C   UNL     1     -44.493  41.383  26.312  1.00  0.00     0.095 A 
ATOM     49  H   UNL     1     -43.162  39.678  26.876  1.00  0.00     0.084 H 
ATOM     50  C   UNL     1     -45.901  41.546  26.504  1.00  0.00     0.087 A 
ATOM     51  N   UNL     1     -47.544  40.217  27.738  1.00  0.00    -0.218 NA
ATOM     52  C   UNL     1     -46.926  42.432  26.127  1.00  0.00     0.138 A 
ATOM     53  C   UNL     1     -48.409  41.170  27.376  1.00  0.00     0.120 A 
ATOM     54  N   UNL     1     -48.174  42.239  26.598  1.00  0.00    -0.219 NA
ATOM     55  H   UNL     1     -49.426  41.061  27.742  1.00  0.00     0.106 H 
BRANCH  48  56
ATOM     56  N   UNL     1     -43.555  42.271  25.704  1.00  0.00    -0.239 N 
ATOM     57  C   UNL     1     -42.327  42.670  26.187  1.00  0.00     0.031 A 
ATOM     58  N   UNL     1     -43.772  42.807  24.467  1.00  0.00    -0.176 NA
ATOM     59  C   UNL     1     -41.787  43.553  25.284  1.00  0.00    -0.024 A 
ATOM     60  H   UNL     1     -41.921  42.264  27.101  1.00  0.00     0.084 H 
ATOM     61  C   UNL     1     -42.723  43.599  24.247  1.00  0.00     0.049 A 
ATOM     62  H   UNL     1     -40.834  44.059  25.353  1.00  0.00     0.066 H 
ATOM     63  H   UNL     1     -42.679  44.164  23.324  1.00  0.00     0.086 H 
ENDBRANCH  48  56
BRANCH  52  64
ATOM     64  N   UNL     1     -46.793  43.477  25.220  1.00  0.00    -0.383 N 
ATOM     65  H   UNL     1     -46.164  43.257  24.456  1.00  0.00     0.158 HD
ATOM     66  H   UNL     1     -47.722  43.760  24.919  1.00  0.00     0.158 HD
ENDBRANCH  52  64
ENDBRANCH  35  45
ENDBRANCH  28  31
ENDBRANCH   1  28
TORSDOF 10
ENDMDL
MODEL 7
REMARK VINA RESULT:      -9.5      2.289     12.008
REMARK SMILES CCNc1ccc2ccc(CC[C@H]3C[C@@H](n4cc(-n5cccn5)c5c(N)ncnc54)C[C@@H]3O)cc2n1
REMARK SMILES IDX 11 1 10 4 4 5 5 6 36 7 6 8 35 10 7 11 34 13 8 14 9 16 3 19
REMARK SMILES IDX 2 21 1 24 12 28 13 31 14 32 32 33 15 35 31 38 33 43 16 45
REMARK SMILES IDX 17 46 30 47 18 48 24 50 29 51 25 52 28 53 27 54 19 56 20 57
REMARK SMILES IDX 23 58 21 59 22 61 26 64
REMARK H PARENT 11 2 11 3 5 9 6 12 34 15 8 17 9 18 3 20 2 22 2 23 1 25 1 26
REMARK H PARENT 1 27 12 29 12 30 13 34 14 36 14 37 32 39 15 40 31 41 31 42
REMARK H PARENT 33 44 17 49 28 55 20 60 21 62 22 63 26 65 26 66
REMARK Flexibility Score: inf
ROOT
ATOM      1  C   UNL     1     -47.825  34.915  27.236  1.00  0.00    -0.027 C 
ATOM      2  H   UNL     1     -48.843  34.772  27.623  1.00  0.00     0.032 H 
ATOM      3  H   UNL     1     -47.179  34.816  28.117  1.00  0.00     0.032 H 
ENDROOT
BRANCH   1   4
ATOM      4  C   UNL     1     -47.550  33.808  26.255  1.00  0.00    -0.046 A 
ATOM      5  C   UNL     1     -48.655  29.458  24.663  1.00  0.00     0.126 A 
ATOM      6  C   UNL     1     -47.612  29.474  23.742  1.00  0.00    -0.019 A 
ATOM      7  N   UNL     1     -48.906  30.517  25.456  1.00  0.00    -0.231 NA
ATOM      8  C   UNL     1     -46.785  30.591  23.665  1.00  0.00    -0.049 A 
ATOM      9  H   UNL     1     -47.444  28.625  23.089  1.00  0.00     0.066 H 
ATOM     10  C   UNL     1     -48.114  31.598  25.384  1.00  0.00     0.073 A 
ATOM     11  C   UNL     1     -47.020  31.681  24.506  1.00  0.00     0.000 A 
ATOM     12  H   UNL     1     -45.964  30.600  22.953  1.00  0.00     0.063 H 
ATOM     13  C   UNL     1     -48.370  32.670  26.225  1.00  0.00    -0.033 A 
ATOM     14  C   UNL     1     -46.208  32.828  24.496  1.00  0.00    -0.053 A 
ATOM     15  H   UNL     1     -49.227  32.595  26.890  1.00  0.00     0.065 H 
ATOM     16  C   UNL     1     -46.469  33.883  25.371  1.00  0.00    -0.058 A 
ATOM     17  H   UNL     1     -45.363  32.900  23.815  1.00  0.00     0.063 H 
ATOM     18  H   UNL     1     -45.824  34.758  25.362  1.00  0.00     0.063 H 
BRANCH   5  19
ATOM     19  N   UNL     1     -49.466  28.309  24.722  1.00  0.00    -0.370 N 
ATOM     20  H   UNL     1     -49.342  27.795  23.854  1.00  0.00     0.162 HD
BRANCH  19  21
ATOM     21  C   UNL     1     -49.234  27.438  25.877  1.00  0.00     0.013 C 
ATOM     22  H   UNL     1     -48.617  27.995  26.592  1.00  0.00     0.049 H 
ATOM     23  H   UNL     1     -50.163  27.192  26.402  1.00  0.00     0.049 H 
BRANCH  21  24
ATOM     24  C   UNL     1     -48.469  26.187  25.475  1.00  0.00    -0.048 C 
ATOM     25  H   UNL     1     -49.131  25.414  25.074  1.00  0.00     0.025 H 
ATOM     26  H   UNL     1     -47.722  26.415  24.708  1.00  0.00     0.025 H 
ATOM     27  H   UNL     1     -47.949  25.766  26.342  1.00  0.00     0.025 H 
ENDBRANCH  21  24
ENDBRANCH  19  21
ENDBRANCH   5  19
ENDBRANCH   1   4
BRANCH   1  28
ATOM     28  C   UNL     1     -47.727  36.334  26.654  1.00  0.00    -0.044 C 
ATOM     29  H   UNL     1     -47.451  36.278  25.592  1.00  0.00     0.027 H 
ATOM     30  H   UNL     1     -48.745  36.747  26.674  1.00  0.00     0.027 H 
BRANCH  28  31
ATOM     31  C   UNL     1     -46.813  37.361  27.346  1.00  0.00    -0.013 C 
ATOM     32  C   UNL     1     -46.280  38.493  26.464  1.00  0.00    -0.027 C 
ATOM     33  C   UNL     1     -47.411  38.057  28.586  1.00  0.00     0.059 C 
ATOM     34  H   UNL     1     -45.939  36.785  27.687  1.00  0.00     0.033 H 
ATOM     35  C   UNL     1     -45.871  39.561  27.483  1.00  0.00     0.038 C 
ATOM     36  H   UNL     1     -47.037  38.894  25.785  1.00  0.00     0.029 H 
ATOM     37  H   UNL     1     -45.435  38.158  25.852  1.00  0.00     0.029 H 
ATOM     38  C   UNL     1     -47.041  39.538  28.473  1.00  0.00    -0.006 C 
ATOM     39  H   UNL     1     -48.489  37.933  28.701  1.00  0.00     0.060 H 
ATOM     40  H   UNL     1     -44.970  39.232  28.020  1.00  0.00     0.054 H 
ATOM     41  H   UNL     1     -46.766  39.989  29.432  1.00  0.00     0.031 H 
ATOM     42  H   UNL     1     -47.904  40.083  28.077  1.00  0.00     0.031 H 
BRANCH  33  43
ATOM     43  O   UNL     1     -46.800  37.525  29.761  1.00  0.00    -0.393 OA
ATOM     44  H   UNL     1     -45.967  37.103  29.487  1.00  0.00     0.210 HD
ENDBRANCH  33  43
BRANCH  35  45
ATOM     45  N   UNL     1     -45.542  40.834  26.869  1.00  0.00    -0.327 N 
ATOM     46  C   UNL     1     -46.385  41.699  26.226  1.00  0.00     0.033 A 
ATOM     47  C   UNL     1     -44.268  41.356  26.854  1.00  0.00     0.148 A 
ATOM     48  C   UNL     1     -45.639  42.770  25.760  1.00  0.00     0.095 A 
ATOM     49  H   UNL     1     -47.440  41.487  26.093  1.00  0.00     0.084 H 
ATOM     50  C   UNL     1     -44.297  42.600  26.225  1.00  0.00     0.087 A 
ATOM     51  N   UNL     1     -43.194  40.751  27.388  1.00  0.00    -0.218 NA
ATOM     52  C   UNL     1     -43.087  43.316  26.254  1.00  0.00     0.138 A 
ATOM     53  C   UNL     1     -42.092  41.500  27.283  1.00  0.00     0.120 A 
ATOM     54  N   UNL     1     -41.985  42.735  26.766  1.00  0.00    -0.219 NA
ATOM     55  H   UNL     1     -41.176  41.065  27.674  1.00  0.00     0.106 H 
BRANCH  48  56
ATOM     56  N   UNL     1     -46.192  43.812  24.956  1.00  0.00    -0.239 N 
ATOM     57  C   UNL     1     -47.412  44.438  25.100  1.00  0.00     0.031 A 
ATOM     58  N   UNL     1     -45.493  44.373  23.926  1.00  0.00    -0.176 NA
ATOM     59  C   UNL     1     -47.536  45.354  24.084  1.00  0.00    -0.024 A 
ATOM     60  H   UNL     1     -48.066  44.217  25.929  1.00  0.00     0.084 H 
ATOM     61  C   UNL     1     -46.324  45.267  23.393  1.00  0.00     0.049 A 
ATOM     62  H   UNL     1     -48.370  46.015  23.897  1.00  0.00     0.066 H 
ATOM     63  H   UNL     1     -45.999  45.833  22.529  1.00  0.00     0.086 H 
ENDBRANCH  48  56
BRANCH  52  64
ATOM     64  N   UNL     1     -42.928  44.643  25.866  1.00  0.00    -0.383 N 
ATOM     65  H   UNL     1     -43.521  44.897  25.085  1.00  0.00     0.158 HD
ATOM     66  H   UNL     1     -43.050  45.232  26.685  1.00  0.00     0.158 HD
ENDBRANCH  52  64
ENDBRANCH  35  45
ENDBRANCH  28  31
ENDBRANCH   1  28
TORSDOF 10
ENDMDL
