MODEL 1
REMARK VINA RESULT:     -10.2      0.000      0.000
REMARK SMILES CS(=O)(=O)c1cn(-c2cncc(COc3ccc4ccc(N5CCC5)nc4c3)c2)c2ncnc(N)c12
REMARK SMILES IDX 8 1 9 2 10 3 11 4 12 5 29 6 7 10 5 11 6 12 36 13 30 15 34 16
REMARK SMILES IDX 31 17 33 18 32 19 2 21 3 22 4 23 1 24 35 28 13 31 14 34
REMARK SMILES IDX 15 35 16 36 28 37 17 38 27 40 18 42 26 44 19 45 21 46 20 47
REMARK SMILES IDX 22 50 23 51 25 52 24 53
REMARK H PARENT 9 7 11 8 29 9 6 14 32 20 1 25 1 26 1 27 35 29 35 30 13 32
REMARK H PARENT 13 33 16 39 28 41 17 43 19 48 20 49 23 54 23 55 25 56 25 57
REMARK H PARENT 24 58 24 59
REMARK Flexibility Score: inf
ROOT
ATOM      1  C   UNL     1     -47.467  32.770  25.920  1.00  0.00     0.066 A 
ATOM      2  C   UNL     1     -46.758  32.161  26.946  1.00  0.00     0.051 A 
ATOM      3  N   UNL     1     -46.133  32.848  27.937  1.00  0.00    -0.262 NA
ATOM      4  C   UNL     1     -46.208  34.196  27.900  1.00  0.00     0.034 A 
ATOM      5  C   UNL     1     -46.894  34.912  26.927  1.00  0.00     0.010 A 
ATOM      6  C   UNL     1     -47.560  34.166  25.947  1.00  0.00    -0.028 A 
ATOM      7  H   UNL     1     -46.614  31.089  27.016  1.00  0.00     0.086 H 
ATOM      8  H   UNL     1     -45.680  34.697  28.708  1.00  0.00     0.084 H 
ATOM      9  H   UNL     1     -48.165  34.693  25.217  1.00  0.00     0.065 H 
ENDROOT
BRANCH   1  10
ATOM     10  N   UNL     1     -48.043  32.025  24.847  1.00  0.00    -0.298 N 
ATOM     11  C   UNL     1     -49.609  31.138  23.492  1.00  0.00     0.098 A 
ATOM     12  C   UNL     1     -49.407  31.860  24.650  1.00  0.00     0.031 A 
ATOM     13  C   UNL     1     -48.338  30.807  22.957  1.00  0.00     0.080 A 
ATOM     14  H   UNL     1     -50.127  32.324  25.309  1.00  0.00     0.084 H 
ATOM     15  C   UNL     1     -47.388  31.375  23.804  1.00  0.00     0.151 A 
ATOM     16  C   UNL     1     -47.852  30.099  21.845  1.00  0.00     0.137 A 
ATOM     17  N   UNL     1     -46.053  31.279  23.648  1.00  0.00    -0.218 NA
ATOM     18  N   UNL     1     -46.522  29.996  21.666  1.00  0.00    -0.219 NA
ATOM     19  C   UNL     1     -45.709  30.582  22.557  1.00  0.00     0.120 A 
ATOM     20  H   UNL     1     -44.645  30.475  22.372  1.00  0.00     0.106 H 
BRANCH  11  21
ATOM     21  S   UNL     1     -51.128  30.752  22.776  1.00  0.00     0.177 S 
ATOM     22  O   UNL     1     -50.948  31.061  21.371  1.00  0.00    -0.224 OA
ATOM     23  O   UNL     1     -52.091  31.440  23.607  1.00  0.00    -0.224 OA
BRANCH  21  24
ATOM     24  C   UNL     1     -51.337  29.004  22.961  1.00  0.00     0.043 C 
ATOM     25  H   UNL     1     -50.538  28.491  22.426  1.00  0.00     0.040 H 
ATOM     26  H   UNL     1     -51.273  28.768  24.026  1.00  0.00     0.040 H 
ATOM     27  H   UNL     1     -52.318  28.714  22.578  1.00  0.00     0.040 H 
ENDBRANCH  21  24
ENDBRANCH  11  21
BRANCH  16  28
ATOM     28  N   UNL     1     -48.652  29.463  20.909  1.00  0.00    -0.383 N 
ATOM     29  H   UNL     1     -49.555  29.904  20.734  1.00  0.00     0.158 HD
ATOM     30  H   UNL     1     -48.678  28.463  21.064  1.00  0.00     0.158 HD
ENDBRANCH  16  28
ENDBRANCH   1  10
BRANCH   5  31
ATOM     31  C   UNL     1     -46.911  36.423  26.981  1.00  0.00     0.115 C 
ATOM     32  H   UNL     1     -45.966  36.774  26.550  1.00  0.00     0.076 H 
ATOM     33  H   UNL     1     -47.708  36.836  26.353  1.00  0.00     0.076 H 
BRANCH  31  34
ATOM     34  O   UNL     1     -46.971  36.988  28.299  1.00  0.00    -0.489 OA
BRANCH  34  35
ATOM     35  C   UNL     1     -45.961  37.829  28.684  1.00  0.00     0.122 A 
ATOM     36  C   UNL     1     -45.157  37.670  29.807  1.00  0.00    -0.019 A 
ATOM     37  C   UNL     1     -45.735  38.904  27.818  1.00  0.00     0.007 A 
ATOM     38  C   UNL     1     -44.106  38.562  30.030  1.00  0.00    -0.049 A 
ATOM     39  H   UNL     1     -45.314  36.867  30.519  1.00  0.00     0.066 H 
ATOM     40  C   UNL     1     -44.680  39.784  27.998  1.00  0.00     0.076 A 
ATOM     41  H   UNL     1     -46.377  39.032  26.949  1.00  0.00     0.069 H 
ATOM     42  C   UNL     1     -43.856  39.607  29.123  1.00  0.00     0.001 A 
ATOM     43  H   UNL     1     -43.474  38.426  30.904  1.00  0.00     0.063 H 
ATOM     44  N   UNL     1     -44.464  40.746  27.085  1.00  0.00    -0.231 NA
ATOM     45  C   UNL     1     -42.786  40.490  29.288  1.00  0.00    -0.049 A 
ATOM     46  C   UNL     1     -43.427  41.598  27.252  1.00  0.00     0.129 A 
ATOM     47  C   UNL     1     -42.570  41.488  28.342  1.00  0.00    -0.019 A 
ATOM     48  H   UNL     1     -42.111  40.401  30.135  1.00  0.00     0.063 H 
ATOM     49  H   UNL     1     -41.727  42.162  28.455  1.00  0.00     0.066 H 
BRANCH  46  50
ATOM     50  N   UNL     1     -43.199  42.575  26.267  1.00  0.00    -0.356 N 
ATOM     51  C   UNL     1     -41.925  43.023  25.784  1.00  0.00     0.021 C 
ATOM     52  C   UNL     1     -43.724  43.911  26.316  1.00  0.00     0.021 C 
ATOM     53  C   UNL     1     -42.656  44.272  25.279  1.00  0.00    -0.018 C 
ATOM     54  H   UNL     1     -41.201  43.203  26.587  1.00  0.00     0.049 H 
ATOM     55  H   UNL     1     -41.498  42.379  25.012  1.00  0.00     0.049 H 
ATOM     56  H   UNL     1     -44.760  43.984  25.980  1.00  0.00     0.049 H 
ATOM     57  H   UNL     1     -43.597  44.386  27.295  1.00  0.00     0.049 H 
ATOM     58  H   UNL     1     -42.140  45.222  25.437  1.00  0.00     0.030 H 
ATOM     59  H   UNL     1     -42.995  44.207  24.239  1.00  0.00     0.030 H 
ENDBRANCH  46  50
ENDBRANCH  34  35
ENDBRANCH  31  34
ENDBRANCH   5  31
TORSDOF 8
ENDMDL
MODEL 2
REMARK VINA RESULT:     -10.1      2.465      2.995
REMARK SMILES CS(=O)(=O)c1cn(-c2cncc(COc3ccc4ccc(N5CCC5)nc4c3)c2)c2ncnc(N)c12
REMARK SMILES IDX 8 1 9 2 10 3 11 4 12 5 29 6 7 10 5 11 6 12 36 13 30 15 34 16
REMARK SMILES IDX 31 17 33 18 32 19 2 21 3 22 4 23 1 24 35 28 13 31 14 34
REMARK SMILES IDX 15 35 16 36 28 37 17 38 27 40 18 42 26 44 19 45 21 46 20 47
REMARK SMILES IDX 22 50 23 51 25 52 24 53
REMARK H PARENT 9 7 11 8 29 9 6 14 32 20 1 25 1 26 1 27 35 29 35 30 13 32
REMARK H PARENT 13 33 16 39 28 41 17 43 19 48 20 49 23 54 23 55 25 56 25 57
REMARK H PARENT 24 58 24 59
REMARK Flexibility Score: inf
ROOT
ATOM      1  C   UNL     1     -48.024  32.261  25.381  1.00  0.00     0.066 A 
ATOM      2  C   UNL     1     -46.736  32.550  24.952  1.00  0.00     0.051 A 
ATOM      3  N   UNL     1     -46.101  33.721  25.216  1.00  0.00    -0.262 NA
ATOM      4  C   UNL     1     -46.779  34.646  25.931  1.00  0.00     0.034 A 
ATOM      5  C   UNL     1     -48.067  34.465  26.418  1.00  0.00     0.010 A 
ATOM      6  C   UNL     1     -48.671  33.228  26.159  1.00  0.00    -0.028 A 
ATOM      7  H   UNL     1     -46.150  31.878  24.336  1.00  0.00     0.086 H 
ATOM      8  H   UNL     1     -46.231  35.569  26.103  1.00  0.00     0.084 H 
ATOM      9  H   UNL     1     -49.647  33.028  26.589  1.00  0.00     0.065 H 
ENDROOT
BRANCH   1  10
ATOM     10  N   UNL     1     -48.695  31.055  25.017  1.00  0.00    -0.298 N 
ATOM     11  C   UNL     1     -49.356  28.903  25.079  1.00  0.00     0.098 A 
ATOM     12  C   UNL     1     -48.510  29.832  25.646  1.00  0.00     0.031 A 
ATOM     13  C   UNL     1     -50.076  29.544  24.039  1.00  0.00     0.080 A 
ATOM     14  H   UNL     1     -47.841  29.733  26.489  1.00  0.00     0.084 H 
ATOM     15  C   UNL     1     -49.659  30.875  24.028  1.00  0.00     0.151 A 
ATOM     16  C   UNL     1     -51.049  29.177  23.094  1.00  0.00     0.137 A 
ATOM     17  N   UNL     1     -50.101  31.818  23.173  1.00  0.00    -0.218 NA
ATOM     18  N   UNL     1     -51.508  30.106  22.235  1.00  0.00    -0.219 NA
ATOM     19  C   UNL     1     -51.023  31.353  22.320  1.00  0.00     0.120 A 
ATOM     20  H   UNL     1     -51.424  32.068  21.610  1.00  0.00     0.106 H 
BRANCH  11  21
ATOM     21  S   UNL     1     -49.561  27.264  25.575  1.00  0.00     0.177 S 
ATOM     22  O   UNL     1     -49.169  26.490  24.414  1.00  0.00    -0.224 OA
ATOM     23  O   UNL     1     -50.902  27.230  26.118  1.00  0.00    -0.224 OA
BRANCH  21  24
ATOM     24  C   UNL     1     -48.395  26.987  26.877  1.00  0.00     0.043 C 
ATOM     25  H   UNL     1     -48.451  27.813  27.586  1.00  0.00     0.040 H 
ATOM     26  H   UNL     1     -48.666  26.056  27.378  1.00  0.00     0.040 H 
ATOM     27  H   UNL     1     -47.393  26.899  26.452  1.00  0.00     0.040 H 
ENDBRANCH  21  24
ENDBRANCH  11  21
BRANCH  16  28
ATOM     28  N   UNL     1     -51.567  27.900  22.957  1.00  0.00    -0.383 N 
ATOM     29  H   UNL     1     -52.539  27.790  23.244  1.00  0.00     0.158 HD
ATOM     30  H   UNL     1     -50.926  27.202  23.313  1.00  0.00     0.158 HD
ENDBRANCH  16  28
ENDBRANCH   1  10
BRANCH   5  31
ATOM     31  C   UNL     1     -48.733  35.570  27.205  1.00  0.00     0.115 C 
ATOM     32  H   UNL     1     -48.545  36.509  26.670  1.00  0.00     0.076 H 
ATOM     33  H   UNL     1     -49.821  35.443  27.231  1.00  0.00     0.076 H 
BRANCH  31  34
ATOM     34  O   UNL     1     -48.223  35.770  28.532  1.00  0.00    -0.489 OA
BRANCH  34  35
ATOM     35  C   UNL     1     -47.199  36.664  28.699  1.00  0.00     0.122 A 
ATOM     36  C   UNL     1     -46.156  36.541  29.609  1.00  0.00    -0.019 A 
ATOM     37  C   UNL     1     -47.232  37.757  27.827  1.00  0.00     0.007 A 
ATOM     38  C   UNL     1     -45.132  37.490  29.611  1.00  0.00    -0.049 A 
ATOM     39  H   UNL     1     -46.106  35.725  30.322  1.00  0.00     0.066 H 
ATOM     40  C   UNL     1     -46.213  38.695  27.785  1.00  0.00     0.076 A 
ATOM     41  H   UNL     1     -48.059  37.856  27.127  1.00  0.00     0.069 H 
ATOM     42  C   UNL     1     -45.148  38.556  28.694  1.00  0.00     0.001 A 
ATOM     43  H   UNL     1     -44.313  37.384  30.318  1.00  0.00     0.063 H 
ATOM     44  N   UNL     1     -46.259  39.675  26.868  1.00  0.00    -0.231 NA
ATOM     45  C   UNL     1     -44.118  39.497  28.633  1.00  0.00    -0.049 A 
ATOM     46  C   UNL     1     -45.259  40.584  26.817  1.00  0.00     0.129 A 
ATOM     47  C   UNL     1     -44.174  40.514  27.684  1.00  0.00    -0.019 A 
ATOM     48  H   UNL     1     -43.266  39.440  29.305  1.00  0.00     0.063 H 
ATOM     49  H   UNL     1     -43.365  41.235  27.620  1.00  0.00     0.066 H 
BRANCH  46  50
ATOM     50  N   UNL     1     -45.312  41.581  25.826  1.00  0.00    -0.356 N 
ATOM     51  C   UNL     1     -44.195  42.267  25.243  1.00  0.00     0.021 C 
ATOM     52  C   UNL     1     -46.081  42.788  25.934  1.00  0.00     0.021 C 
ATOM     53  C   UNL     1     -45.197  43.346  24.814  1.00  0.00    -0.018 C 
ATOM     54  H   UNL     1     -43.455  42.590  25.984  1.00  0.00     0.049 H 
ATOM     55  H   UNL     1     -43.717  41.715  24.431  1.00  0.00     0.049 H 
ATOM     56  H   UNL     1     -47.137  42.655  25.687  1.00  0.00     0.049 H 
ATOM     57  H   UNL     1     -45.968  43.285  26.904  1.00  0.00     0.049 H 
ATOM     58  H   UNL     1     -44.866  44.380  24.939  1.00  0.00     0.030 H 
ATOM     59  H   UNL     1     -45.604  43.210  23.807  1.00  0.00     0.030 H 
ENDBRANCH  46  50
ENDBRANCH  34  35
ENDBRANCH  31  34
ENDBRANCH   5  31
TORSDOF 8
ENDMDL
MODEL 3
REMARK VINA RESULT:     -10.1      3.465     11.532
REMARK SMILES CS(=O)(=O)c1cn(-c2cncc(COc3ccc4ccc(N5CCC5)nc4c3)c2)c2ncnc(N)c12
REMARK SMILES IDX 8 1 9 2 10 3 11 4 12 5 29 6 7 10 5 11 6 12 36 13 30 15 34 16
REMARK SMILES IDX 31 17 33 18 32 19 2 21 3 22 4 23 1 24 35 28 13 31 14 34
REMARK SMILES IDX 15 35 16 36 28 37 17 38 27 40 18 42 26 44 19 45 21 46 20 47
REMARK SMILES IDX 22 50 23 51 25 52 24 53
REMARK H PARENT 9 7 11 8 29 9 6 14 32 20 1 25 1 26 1 27 35 29 35 30 13 32
REMARK H PARENT 13 33 16 39 28 41 17 43 19 48 20 49 23 54 23 55 25 56 25 57
REMARK H PARENT 24 58 24 59
REMARK Flexibility Score: inf
ROOT
ATOM      1  C   UNL     1     -45.665  38.326  28.318  1.00  0.00     0.066 A 
ATOM      2  C   UNL     1     -45.399  37.751  29.553  1.00  0.00     0.051 A 
ATOM      3  N   UNL     1     -46.002  36.618  30.000  1.00  0.00    -0.262 NA
ATOM      4  C   UNL     1     -46.913  36.039  29.188  1.00  0.00     0.034 A 
ATOM      5  C   UNL     1     -47.253  36.520  27.930  1.00  0.00     0.010 A 
ATOM      6  C   UNL     1     -46.579  37.666  27.489  1.00  0.00    -0.028 A 
ATOM      7  H   UNL     1     -44.718  38.184  30.277  1.00  0.00     0.086 H 
ATOM      8  H   UNL     1     -47.373  35.144  29.598  1.00  0.00     0.084 H 
ATOM      9  H   UNL     1     -46.770  38.023  26.483  1.00  0.00     0.065 H 
ENDROOT
BRANCH   1  10
ATOM     10  N   UNL     1     -45.078  39.561  27.912  1.00  0.00    -0.298 N 
ATOM     11  C   UNL     1     -44.801  41.509  26.816  1.00  0.00     0.098 A 
ATOM     12  C   UNL     1     -45.577  40.373  26.903  1.00  0.00     0.031 A 
ATOM     13  C   UNL     1     -43.760  41.402  27.774  1.00  0.00     0.080 A 
ATOM     14  H   UNL     1     -46.481  40.112  26.371  1.00  0.00     0.084 H 
ATOM     15  C   UNL     1     -43.960  40.197  28.445  1.00  0.00     0.151 A 
ATOM     16  C   UNL     1     -42.661  42.179  28.179  1.00  0.00     0.137 A 
ATOM     17  N   UNL     1     -43.173  39.718  29.429  1.00  0.00    -0.218 NA
ATOM     18  N   UNL     1     -41.867  41.722  29.164  1.00  0.00    -0.219 NA
ATOM     19  C   UNL     1     -42.160  40.541  29.729  1.00  0.00     0.120 A 
ATOM     20  H   UNL     1     -41.494  40.215  30.520  1.00  0.00     0.106 H 
BRANCH  11  21
ATOM     21  S   UNL     1     -45.069  42.859  25.777  1.00  0.00     0.177 S 
ATOM     22  O   UNL     1     -44.832  44.012  26.624  1.00  0.00    -0.224 OA
ATOM     23  O   UNL     1     -46.355  42.585  25.175  1.00  0.00    -0.224 OA
BRANCH  21  24
ATOM     24  C   UNL     1     -43.813  42.788  24.532  1.00  0.00     0.043 C 
ATOM     25  H   UNL     1     -44.219  42.302  23.644  1.00  0.00     0.040 H 
ATOM     26  H   UNL     1     -43.523  43.811  24.288  1.00  0.00     0.040 H 
ATOM     27  H   UNL     1     -42.950  42.243  24.920  1.00  0.00     0.040 H 
ENDBRANCH  21  24
ENDBRANCH  11  21
BRANCH  16  28
ATOM     28  N   UNL     1     -42.310  43.394  27.615  1.00  0.00    -0.383 N 
ATOM     29  H   UNL     1     -42.920  44.177  27.848  1.00  0.00     0.158 HD
ATOM     30  H   UNL     1     -42.085  43.294  26.633  1.00  0.00     0.158 HD
ENDBRANCH  16  28
ENDBRANCH   1  10
BRANCH   5  31
ATOM     31  C   UNL     1     -48.290  35.792  27.105  1.00  0.00     0.115 C 
ATOM     32  H   UNL     1     -49.273  36.165  27.415  1.00  0.00     0.076 H 
ATOM     33  H   UNL     1     -48.192  36.030  26.040  1.00  0.00     0.076 H 
BRANCH  31  34
ATOM     34  O   UNL     1     -48.336  34.370  27.295  1.00  0.00    -0.489 OA
BRANCH  34  35
ATOM     35  C   UNL     1     -47.850  33.571  26.295  1.00  0.00     0.122 A 
ATOM     36  C   UNL     1     -46.777  33.873  25.465  1.00  0.00    -0.019 A 
ATOM     37  C   UNL     1     -48.501  32.339  26.165  1.00  0.00     0.007 A 
ATOM     38  C   UNL     1     -46.336  32.924  24.541  1.00  0.00    -0.049 A 
ATOM     39  H   UNL     1     -46.262  34.826  25.513  1.00  0.00     0.066 H 
ATOM     40  C   UNL     1     -48.063  31.368  25.279  1.00  0.00     0.076 A 
ATOM     41  H   UNL     1     -49.350  32.114  26.807  1.00  0.00     0.069 H 
ATOM     42  C   UNL     1     -46.964  31.669  24.456  1.00  0.00     0.001 A 
ATOM     43  H   UNL     1     -45.489  33.162  23.901  1.00  0.00     0.063 H 
ATOM     44  N   UNL     1     -48.678  30.173  25.259  1.00  0.00    -0.231 NA
ATOM     45  C   UNL     1     -46.522  30.677  23.577  1.00  0.00    -0.049 A 
ATOM     46  C   UNL     1     -48.244  29.219  24.405  1.00  0.00     0.129 A 
ATOM     47  C   UNL     1     -47.165  29.443  23.557  1.00  0.00    -0.019 A 
ATOM     48  H   UNL     1     -45.674  30.849  22.919  1.00  0.00     0.063 H 
ATOM     49  H   UNL     1     -46.810  28.662  22.892  1.00  0.00     0.066 H 
BRANCH  46  50
ATOM     50  N   UNL     1     -48.880  27.964  24.426  1.00  0.00    -0.356 N 
ATOM     51  C   UNL     1     -50.154  27.640  23.853  1.00  0.00     0.021 C 
ATOM     52  C   UNL     1     -49.154  27.216  25.621  1.00  0.00     0.021 C 
ATOM     53  C   UNL     1     -50.165  26.424  24.785  1.00  0.00    -0.018 C 
ATOM     54  H   UNL     1     -50.923  28.393  24.064  1.00  0.00     0.049 H 
ATOM     55  H   UNL     1     -50.111  27.418  22.785  1.00  0.00     0.049 H 
ATOM     56  H   UNL     1     -48.293  26.653  25.988  1.00  0.00     0.049 H 
ATOM     57  H   UNL     1     -49.590  27.826  26.419  1.00  0.00     0.049 H 
ATOM     58  H   UNL     1     -51.118  26.205  25.273  1.00  0.00     0.030 H 
ATOM     59  H   UNL     1     -49.763  25.508  24.338  1.00  0.00     0.030 H 
ENDBRANCH  46  50
ENDBRANCH  34  35
ENDBRANCH  31  34
ENDBRANCH   5  31
TORSDOF 8
ENDMDL
MODEL 4
REMARK VINA RESULT:      -9.7      2.145      2.607
REMARK SMILES CS(=O)(=O)c1cn(-c2cncc(COc3ccc4ccc(N5CCC5)nc4c3)c2)c2ncnc(N)c12
REMARK SMILES IDX 8 1 9 2 10 3 11 4 12 5 29 6 7 10 5 11 6 12 36 13 30 15 34 16
REMARK SMILES IDX 31 17 33 18 32 19 2 21 3 22 4 23 1 24 35 28 13 31 14 34
REMARK SMILES IDX 15 35 16 36 28 37 17 38 27 40 18 42 26 44 19 45 21 46 20 47
REMARK SMILES IDX 22 50 23 51 25 52 24 53
REMARK H PARENT 9 7 11 8 29 9 6 14 32 20 1 25 1 26 1 27 35 29 35 30 13 32
REMARK H PARENT 13 33 16 39 28 41 17 43 19 48 20 49 23 54 23 55 25 56 25 57
REMARK H PARENT 24 58 24 59
REMARK Flexibility Score: inf
ROOT
ATOM      1  C   UNL     1     -46.799  33.271  26.060  1.00  0.00     0.066 A 
ATOM      2  C   UNL     1     -46.351  32.848  27.304  1.00  0.00     0.051 A 
ATOM      3  N   UNL     1     -46.096  33.692  28.337  1.00  0.00    -0.262 NA
ATOM      4  C   UNL     1     -46.287  35.012  28.121  1.00  0.00     0.034 A 
ATOM      5  C   UNL     1     -46.738  35.548  26.922  1.00  0.00     0.010 A 
ATOM      6  C   UNL     1     -47.030  34.641  25.895  1.00  0.00    -0.028 A 
ATOM      7  H   UNL     1     -46.130  31.813  27.537  1.00  0.00     0.086 H 
ATOM      8  H   UNL     1     -46.057  35.644  28.975  1.00  0.00     0.084 H 
ATOM      9  H   UNL     1     -47.454  35.023  24.972  1.00  0.00     0.065 H 
ENDROOT
BRANCH   1  10
ATOM     10  N   UNL     1     -46.978  32.369  24.969  1.00  0.00    -0.298 N 
ATOM     11  C   UNL     1     -46.751  31.457  22.922  1.00  0.00     0.098 A 
ATOM     12  C   UNL     1     -46.423  32.541  23.709  1.00  0.00     0.031 A 
ATOM     13  C   UNL     1     -47.564  30.587  23.693  1.00  0.00     0.080 A 
ATOM     14  H   UNL     1     -45.786  33.386  23.490  1.00  0.00     0.084 H 
ATOM     15  C   UNL     1     -47.680  31.166  24.956  1.00  0.00     0.151 A 
ATOM     16  C   UNL     1     -48.221  29.361  23.494  1.00  0.00     0.137 A 
ATOM     17  N   UNL     1     -48.386  30.651  25.982  1.00  0.00    -0.218 NA
ATOM     18  N   UNL     1     -48.927  28.827  24.509  1.00  0.00    -0.219 NA
ATOM     19  C   UNL     1     -48.969  29.485  25.677  1.00  0.00     0.120 A 
ATOM     20  H   UNL     1     -49.546  29.016  26.466  1.00  0.00     0.106 H 
BRANCH  11  21
ATOM     21  S   UNL     1     -46.224  31.164  21.307  1.00  0.00     0.177 S 
ATOM     22  O   UNL     1     -45.614  29.849  21.365  1.00  0.00    -0.224 OA
ATOM     23  O   UNL     1     -45.477  32.354  20.963  1.00  0.00    -0.224 OA
BRANCH  21  24
ATOM     24  C   UNL     1     -47.686  31.081  20.312  1.00  0.00     0.043 C 
ATOM     25  H   UNL     1     -48.269  30.209  20.610  1.00  0.00     0.040 H 
ATOM     26  H   UNL     1     -48.266  31.988  20.491  1.00  0.00     0.040 H 
ATOM     27  H   UNL     1     -47.403  31.025  19.259  1.00  0.00     0.040 H 
ENDBRANCH  21  24
ENDBRANCH  11  21
BRANCH  16  28
ATOM     28  N   UNL     1     -48.221  28.655  22.304  1.00  0.00    -0.383 N 
ATOM     29  H   UNL     1     -47.753  27.749  22.332  1.00  0.00     0.158 HD
ATOM     30  H   UNL     1     -47.973  29.248  21.522  1.00  0.00     0.158 HD
ENDBRANCH  16  28
ENDBRANCH   1  10
BRANCH   5  31
ATOM     31  C   UNL     1     -46.915  37.044  26.788  1.00  0.00     0.115 C 
ATOM     32  H   UNL     1     -46.080  37.417  26.182  1.00  0.00     0.076 H 
ATOM     33  H   UNL     1     -47.830  37.291  26.238  1.00  0.00     0.076 H 
BRANCH  31  34
ATOM     34  O   UNL     1     -46.860  37.779  28.020  1.00  0.00    -0.489 OA
BRANCH  34  35
ATOM     35  C   UNL     1     -45.807  38.634  28.212  1.00  0.00     0.122 A 
ATOM     36  C   UNL     1     -44.908  38.588  29.271  1.00  0.00    -0.019 A 
ATOM     37  C   UNL     1     -45.644  39.593  27.206  1.00  0.00     0.007 A 
ATOM     38  C   UNL     1     -43.829  39.473  29.293  1.00  0.00    -0.049 A 
ATOM     39  H   UNL     1     -45.012  37.880  30.085  1.00  0.00     0.066 H 
ATOM     40  C   UNL     1     -44.564  40.461  27.187  1.00  0.00     0.076 A 
ATOM     41  H   UNL     1     -46.360  39.634  26.388  1.00  0.00     0.069 H 
ATOM     42  C   UNL     1     -43.645  40.397  28.249  1.00  0.00     0.001 A 
ATOM     43  H   UNL     1     -43.122  39.426  30.118  1.00  0.00     0.063 H 
ATOM     44  N   UNL     1     -44.417  41.303  26.150  1.00  0.00    -0.231 NA
ATOM     45  C   UNL     1     -42.552  41.266  28.212  1.00  0.00    -0.049 A 
ATOM     46  C   UNL     1     -43.357  42.142  26.123  1.00  0.00     0.129 A 
ATOM     47  C   UNL     1     -42.407  42.140  27.138  1.00  0.00    -0.019 A 
ATOM     48  H   UNL     1     -41.805  41.261  29.002  1.00  0.00     0.063 H 
ATOM     49  H   UNL     1     -41.547  42.801  27.095  1.00  0.00     0.066 H 
BRANCH  46  50
ATOM     50  N   UNL     1     -43.204  42.990  25.011  1.00  0.00    -0.356 N 
ATOM     51  C   UNL     1     -43.152  44.423  25.029  1.00  0.00     0.021 C 
ATOM     52  C   UNL     1     -44.057  42.970  23.855  1.00  0.00     0.021 C 
ATOM     53  C   UNL     1     -43.509  44.366  23.539  1.00  0.00    -0.018 C 
ATOM     54  H   UNL     1     -43.918  44.872  25.672  1.00  0.00     0.049 H 
ATOM     55  H   UNL     1     -42.163  44.823  25.264  1.00  0.00     0.049 H 
ATOM     56  H   UNL     1     -43.802  42.184  23.141  1.00  0.00     0.049 H 
ATOM     57  H   UNL     1     -45.122  42.937  24.108  1.00  0.00     0.049 H 
ATOM     58  H   UNL     1     -44.243  45.099  23.196  1.00  0.00     0.030 H 
ATOM     59  H   UNL     1     -42.645  44.370  22.866  1.00  0.00     0.030 H 
ENDBRANCH  46  50
ENDBRANCH  34  35
ENDBRANCH  31  34
ENDBRANCH   5  31
TORSDOF 8
ENDMDL
MODEL 5
REMARK VINA RESULT:      -9.7      3.764     11.475
REMARK SMILES CS(=O)(=O)c1cn(-c2cncc(COc3ccc4ccc(N5CCC5)nc4c3)c2)c2ncnc(N)c12
REMARK SMILES IDX 8 1 9 2 10 3 11 4 12 5 29 6 7 10 5 11 6 12 36 13 30 15 34 16
REMARK SMILES IDX 31 17 33 18 32 19 2 21 3 22 4 23 1 24 35 28 13 31 14 34
REMARK SMILES IDX 15 35 16 36 28 37 17 38 27 40 18 42 26 44 19 45 21 46 20 47
REMARK SMILES IDX 22 50 23 51 25 52 24 53
REMARK H PARENT 9 7 11 8 29 9 6 14 32 20 1 25 1 26 1 27 35 29 35 30 13 32
REMARK H PARENT 13 33 16 39 28 41 17 43 19 48 20 49 23 54 23 55 25 56 25 57
REMARK H PARENT 24 58 24 59
REMARK Flexibility Score: inf
ROOT
ATOM      1  C   UNL     1     -47.585  38.236  27.897  1.00  0.00     0.066 A 
ATOM      2  C   UNL     1     -48.818  38.798  28.195  1.00  0.00     0.051 A 
ATOM      3  N   UNL     1     -49.995  38.127  28.091  1.00  0.00    -0.262 NA
ATOM      4  C   UNL     1     -49.942  36.846  27.665  1.00  0.00     0.034 A 
ATOM      5  C   UNL     1     -48.766  36.179  27.346  1.00  0.00     0.010 A 
ATOM      6  C   UNL     1     -47.572  36.892  27.507  1.00  0.00    -0.028 A 
ATOM      7  H   UNL     1     -48.944  39.832  28.496  1.00  0.00     0.086 H 
ATOM      8  H   UNL     1     -50.911  36.359  27.588  1.00  0.00     0.084 H 
ATOM      9  H   UNL     1     -46.633  36.376  27.336  1.00  0.00     0.065 H 
ENDROOT
BRANCH   1  10
ATOM     10  N   UNL     1     -46.375  38.992  27.936  1.00  0.00    -0.298 N 
ATOM     11  C   UNL     1     -44.839  40.551  27.402  1.00  0.00     0.098 A 
ATOM     12  C   UNL     1     -46.047  39.996  27.036  1.00  0.00     0.031 A 
ATOM     13  C   UNL     1     -44.370  39.859  28.548  1.00  0.00     0.080 A 
ATOM     14  H   UNL     1     -46.727  40.282  26.245  1.00  0.00     0.084 H 
ATOM     15  C   UNL     1     -45.341  38.910  28.865  1.00  0.00     0.151 A 
ATOM     16  C   UNL     1     -43.240  39.913  29.382  1.00  0.00     0.137 A 
ATOM     17  N   UNL     1     -45.265  38.037  29.889  1.00  0.00    -0.218 NA
ATOM     18  N   UNL     1     -43.149  39.055  30.414  1.00  0.00    -0.219 NA
ATOM     19  C   UNL     1     -44.147  38.181  30.612  1.00  0.00     0.120 A 
ATOM     20  H   UNL     1     -44.032  37.511  31.456  1.00  0.00     0.106 H 
BRANCH  11  21
ATOM     21  S   UNL     1     -44.054  41.889  26.651  1.00  0.00     0.177 S 
ATOM     22  O   UNL     1     -42.791  41.347  26.189  1.00  0.00    -0.224 OA
ATOM     23  O   UNL     1     -44.136  42.941  27.639  1.00  0.00    -0.224 OA
BRANCH  21  24
ATOM     24  C   UNL     1     -45.043  42.325  25.248  1.00  0.00     0.043 C 
ATOM     25  H   UNL     1     -45.148  43.410  25.211  1.00  0.00     0.040 H 
ATOM     26  H   UNL     1     -44.527  41.978  24.351  1.00  0.00     0.040 H 
ATOM     27  H   UNL     1     -46.016  41.836  25.326  1.00  0.00     0.040 H 
ENDBRANCH  21  24
ENDBRANCH  11  21
BRANCH  16  28
ATOM     28  N   UNL     1     -42.178  40.784  29.208  1.00  0.00    -0.383 N 
ATOM     29  H   UNL     1     -41.465  40.756  29.936  1.00  0.00     0.158 HD
ATOM     30  H   UNL     1     -42.498  41.709  28.948  1.00  0.00     0.158 HD
ENDBRANCH  16  28
ENDBRANCH   1  10
BRANCH   5  31
ATOM     31  C   UNL     1     -48.823  34.743  26.876  1.00  0.00     0.115 C 
ATOM     32  H   UNL     1     -49.447  34.192  27.590  1.00  0.00     0.076 H 
ATOM     33  H   UNL     1     -49.322  34.660  25.904  1.00  0.00     0.076 H 
BRANCH  31  34
ATOM     34  O   UNL     1     -47.563  34.056  26.851  1.00  0.00    -0.489 OA
BRANCH  34  35
ATOM     35  C   UNL     1     -47.378  33.088  25.901  1.00  0.00     0.122 A 
ATOM     36  C   UNL     1     -46.477  33.151  24.844  1.00  0.00    -0.019 A 
ATOM     37  C   UNL     1     -48.159  31.941  26.077  1.00  0.00     0.007 A 
ATOM     38  C   UNL     1     -46.334  32.050  23.998  1.00  0.00    -0.049 A 
ATOM     39  H   UNL     1     -45.871  34.030  24.655  1.00  0.00     0.066 H 
ATOM     40  C   UNL     1     -48.014  30.823  25.272  1.00  0.00     0.076 A 
ATOM     41  H   UNL     1     -48.874  31.903  26.896  1.00  0.00     0.069 H 
ATOM     42  C   UNL     1     -47.087  30.883  24.216  1.00  0.00     0.001 A 
ATOM     43  H   UNL     1     -45.620  32.101  23.179  1.00  0.00     0.063 H 
ATOM     44  N   UNL     1     -48.734  29.721  25.543  1.00  0.00    -0.231 NA
ATOM     45  C   UNL     1     -46.937  29.745  23.421  1.00  0.00    -0.049 A 
ATOM     46  C   UNL     1     -48.585  28.624  24.766  1.00  0.00     0.129 A 
ATOM     47  C   UNL     1     -47.689  28.607  23.702  1.00  0.00    -0.019 A 
ATOM     48  H   UNL     1     -46.232  29.728  22.593  1.00  0.00     0.063 H 
ATOM     49  H   UNL     1     -47.560  27.714  23.099  1.00  0.00     0.066 H 
BRANCH  46  50
ATOM     50  N   UNL     1     -49.322  27.471  25.089  1.00  0.00    -0.356 N 
ATOM     51  C   UNL     1     -50.697  27.216  24.766  1.00  0.00     0.021 C 
ATOM     52  C   UNL     1     -49.471  26.952  26.420  1.00  0.00     0.021 C 
ATOM     53  C   UNL     1     -50.671  26.166  25.883  1.00  0.00    -0.018 C 
ATOM     54  H   UNL     1     -51.348  28.076  24.953  1.00  0.00     0.049 H 
ATOM     55  H   UNL     1     -50.844  26.829  23.755  1.00  0.00     0.049 H 
ATOM     56  H   UNL     1     -48.619  26.355  26.752  1.00  0.00     0.049 H 
ATOM     57  H   UNL     1     -49.717  27.725  27.157  1.00  0.00     0.049 H 
ATOM     58  H   UNL     1     -51.551  26.138  26.530  1.00  0.00     0.030 H 
ATOM     59  H   UNL     1     -50.432  25.152  25.545  1.00  0.00     0.030 H 
ENDBRANCH  46  50
ENDBRANCH  34  35
ENDBRANCH  31  34
ENDBRANCH   5  31
TORSDOF 8
ENDMDL
MODEL 6
REMARK VINA RESULT:      -9.6      3.742     11.541
REMARK SMILES CS(=O)(=O)c1cn(-c2cncc(COc3ccc4ccc(N5CCC5)nc4c3)c2)c2ncnc(N)c12
REMARK SMILES IDX 8 1 9 2 10 3 11 4 12 5 29 6 7 10 5 11 6 12 36 13 30 15 34 16
REMARK SMILES IDX 31 17 33 18 32 19 2 21 3 22 4 23 1 24 35 28 13 31 14 34
REMARK SMILES IDX 15 35 16 36 28 37 17 38 27 40 18 42 26 44 19 45 21 46 20 47
REMARK SMILES IDX 22 50 23 51 25 52 24 53
REMARK H PARENT 9 7 11 8 29 9 6 14 32 20 1 25 1 26 1 27 35 29 35 30 13 32
REMARK H PARENT 13 33 16 39 28 41 17 43 19 48 20 49 23 54 23 55 25 56 25 57
REMARK H PARENT 24 58 24 59
REMARK Flexibility Score: inf
ROOT
ATOM      1  C   UNL     1     -46.300  38.341  27.290  1.00  0.00     0.066 A 
ATOM      2  C   UNL     1     -45.324  37.900  28.174  1.00  0.00     0.051 A 
ATOM      3  N   UNL     1     -45.183  36.603  28.552  1.00  0.00    -0.262 NA
ATOM      4  C   UNL     1     -46.054  35.709  28.035  1.00  0.00     0.034 A 
ATOM      5  C   UNL     1     -47.064  36.033  27.138  1.00  0.00     0.010 A 
ATOM      6  C   UNL     1     -47.150  37.374  26.742  1.00  0.00    -0.028 A 
ATOM      7  H   UNL     1     -44.622  38.564  28.665  1.00  0.00     0.086 H 
ATOM      8  H   UNL     1     -45.906  34.688  28.379  1.00  0.00     0.084 H 
ATOM      9  H   UNL     1     -47.880  37.645  25.987  1.00  0.00     0.065 H 
ENDROOT
BRANCH   1  10
ATOM     10  N   UNL     1     -46.475  39.722  26.978  1.00  0.00    -0.298 N 
ATOM     11  C   UNL     1     -47.492  41.712  26.695  1.00  0.00     0.098 A 
ATOM     12  C   UNL     1     -47.697  40.380  26.986  1.00  0.00     0.031 A 
ATOM     13  C   UNL     1     -46.105  41.900  26.462  1.00  0.00     0.080 A 
ATOM     14  H   UNL     1     -48.607  39.865  27.262  1.00  0.00     0.084 H 
ATOM     15  C   UNL     1     -45.498  40.660  26.655  1.00  0.00     0.151 A 
ATOM     16  C   UNL     1     -45.264  42.972  26.119  1.00  0.00     0.137 A 
ATOM     17  N   UNL     1     -44.180  40.413  26.517  1.00  0.00    -0.218 NA
ATOM     18  N   UNL     1     -43.944  42.748  25.983  1.00  0.00    -0.219 NA
ATOM     19  C   UNL     1     -43.480  41.506  26.187  1.00  0.00     0.120 A 
ATOM     20  H   UNL     1     -42.410  41.373  26.069  1.00  0.00     0.106 H 
BRANCH  11  21
ATOM     21  S   UNL     1     -48.687  42.954  26.673  1.00  0.00     0.177 S 
ATOM     22  O   UNL     1     -48.682  43.428  25.303  1.00  0.00    -0.224 OA
ATOM     23  O   UNL     1     -48.332  43.799  27.792  1.00  0.00    -0.224 OA
BRANCH  21  24
ATOM     24  C   UNL     1     -50.236  42.163  27.006  1.00  0.00     0.043 C 
ATOM     25  H   UNL     1     -50.089  41.082  27.009  1.00  0.00     0.040 H 
ATOM     26  H   UNL     1     -50.575  42.488  27.991  1.00  0.00     0.040 H 
ATOM     27  H   UNL     1     -50.963  42.460  26.249  1.00  0.00     0.040 H 
ENDBRANCH  21  24
ENDBRANCH  11  21
BRANCH  16  28
ATOM     28  N   UNL     1     -45.699  44.265  25.881  1.00  0.00    -0.383 N 
ATOM     29  H   UNL     1     -45.247  44.988  26.442  1.00  0.00     0.158 HD
ATOM     30  H   UNL     1     -46.709  44.313  25.840  1.00  0.00     0.158 HD
ENDBRANCH  16  28
ENDBRANCH   1  10
BRANCH   5  31
ATOM     31  C   UNL     1     -47.986  34.951  26.624  1.00  0.00     0.115 C 
ATOM     32  H   UNL     1     -48.966  35.111  27.089  1.00  0.00     0.076 H 
ATOM     33  H   UNL     1     -48.140  35.038  25.542  1.00  0.00     0.076 H 
BRANCH  31  34
ATOM     34  O   UNL     1     -47.607  33.609  26.967  1.00  0.00    -0.489 OA
BRANCH  34  35
ATOM     35  C   UNL     1     -47.444  32.707  25.950  1.00  0.00     0.122 A 
ATOM     36  C   UNL     1     -46.621  32.873  24.843  1.00  0.00    -0.019 A 
ATOM     37  C   UNL     1     -48.162  31.516  26.107  1.00  0.00     0.007 A 
ATOM     38  C   UNL     1     -46.488  31.830  23.924  1.00  0.00    -0.049 A 
ATOM     39  H   UNL     1     -46.069  33.790  24.667  1.00  0.00     0.066 H 
ATOM     40  C   UNL     1     -48.023  30.454  25.228  1.00  0.00     0.076 A 
ATOM     41  H   UNL     1     -48.816  31.398  26.968  1.00  0.00     0.069 H 
ATOM     42  C   UNL     1     -47.172  30.618  24.121  1.00  0.00     0.001 A 
ATOM     43  H   UNL     1     -45.834  31.962  23.065  1.00  0.00     0.063 H 
ATOM     44  N   UNL     1     -48.674  29.305  25.479  1.00  0.00    -0.231 NA
ATOM     45  C   UNL     1     -47.028  29.536  23.250  1.00  0.00    -0.049 A 
ATOM     46  C   UNL     1     -48.530  28.263  24.630  1.00  0.00     0.129 A 
ATOM     47  C   UNL     1     -47.708  28.350  23.510  1.00  0.00    -0.019 A 
ATOM     48  H   UNL     1     -46.380  29.600  22.379  1.00  0.00     0.063 H 
ATOM     49  H   UNL     1     -47.581  27.499  22.848  1.00  0.00     0.066 H 
BRANCH  46  50
ATOM     50  N   UNL     1     -49.193  27.060  24.930  1.00  0.00    -0.356 N 
ATOM     51  C   UNL     1     -50.512  26.922  25.476  1.00  0.00     0.021 C 
ATOM     52  C   UNL     1     -48.662  26.035  25.785  1.00  0.00     0.021 C 
ATOM     53  C   UNL     1     -50.096  25.507  25.893  1.00  0.00    -0.018 C 
ATOM     54  H   UNL     1     -50.707  27.611  26.306  1.00  0.00     0.049 H 
ATOM     55  H   UNL     1     -51.305  26.982  24.727  1.00  0.00     0.049 H 
ATOM     56  H   UNL     1     -47.948  25.378  25.284  1.00  0.00     0.049 H 
ATOM     57  H   UNL     1     -48.242  26.429  26.717  1.00  0.00     0.049 H 
ATOM     58  H   UNL     1     -50.414  25.191  26.889  1.00  0.00     0.030 H 
ATOM     59  H   UNL     1     -50.347  24.729  25.164  1.00  0.00     0.030 H 
ENDBRANCH  46  50
ENDBRANCH  34  35
ENDBRANCH  31  34
ENDBRANCH   5  31
TORSDOF 8
ENDMDL
MODEL 7
REMARK VINA RESULT:      -9.5      3.948     11.690
REMARK SMILES CS(=O)(=O)c1cn(-c2cncc(COc3ccc4ccc(N5CCC5)nc4c3)c2)c2ncnc(N)c12
REMARK SMILES IDX 8 1 9 2 10 3 11 4 12 5 29 6 7 10 5 11 6 12 36 13 30 15 34 16
REMARK SMILES IDX 31 17 33 18 32 19 2 21 3 22 4 23 1 24 35 28 13 31 14 34
REMARK SMILES IDX 15 35 16 36 28 37 17 38 27 40 18 42 26 44 19 45 21 46 20 47
REMARK SMILES IDX 22 50 23 51 25 52 24 53
REMARK H PARENT 9 7 11 8 29 9 6 14 32 20 1 25 1 26 1 27 35 29 35 30 13 32
REMARK H PARENT 13 33 16 39 28 41 17 43 19 48 20 49 23 54 23 55 25 56 25 57
REMARK H PARENT 24 58 24 59
REMARK Flexibility Score: inf
ROOT
ATOM      1  C   UNL     1     -45.953  38.238  27.552  1.00  0.00     0.066 A 
ATOM      2  C   UNL     1     -45.239  37.696  28.612  1.00  0.00     0.051 A 
ATOM      3  N   UNL     1     -45.415  36.428  29.066  1.00  0.00    -0.262 NA
ATOM      4  C   UNL     1     -46.346  35.671  28.444  1.00  0.00     0.034 A 
ATOM      5  C   UNL     1     -47.113  36.104  27.371  1.00  0.00     0.010 A 
ATOM      6  C   UNL     1     -46.872  37.404  26.907  1.00  0.00    -0.028 A 
ATOM      7  H   UNL     1     -44.512  38.257  29.189  1.00  0.00     0.086 H 
ATOM      8  H   UNL     1     -46.455  34.670  28.854  1.00  0.00     0.084 H 
ATOM      9  H   UNL     1     -47.402  37.745  26.024  1.00  0.00     0.065 H 
ENDROOT
BRANCH   1  10
ATOM     10  N   UNL     1     -45.804  39.600  27.153  1.00  0.00    -0.298 N 
ATOM     11  C   UNL     1     -44.815  41.513  26.491  1.00  0.00     0.098 A 
ATOM     12  C   UNL     1     -44.586  40.220  26.914  1.00  0.00     0.031 A 
ATOM     13  C   UNL     1     -46.217  41.731  26.492  1.00  0.00     0.080 A 
ATOM     14  H   UNL     1     -43.656  39.676  26.999  1.00  0.00     0.084 H 
ATOM     15  C   UNL     1     -46.806  40.533  26.893  1.00  0.00     0.151 A 
ATOM     16  C   UNL     1     -47.084  42.795  26.194  1.00  0.00     0.137 A 
ATOM     17  N   UNL     1     -48.131  40.330  27.034  1.00  0.00    -0.218 NA
ATOM     18  N   UNL     1     -48.411  42.611  26.322  1.00  0.00    -0.219 NA
ATOM     19  C   UNL     1     -48.856  41.412  26.724  1.00  0.00     0.120 A 
ATOM     20  H   UNL     1     -49.933  41.308  26.810  1.00  0.00     0.106 H 
BRANCH  11  21
ATOM     21  S   UNL     1     -43.626  42.654  25.986  1.00  0.00     0.177 S 
ATOM     22  O   UNL     1     -42.366  41.962  26.175  1.00  0.00    -0.224 OA
ATOM     23  O   UNL     1     -43.969  43.858  26.709  1.00  0.00    -0.224 OA
BRANCH  21  24
ATOM     24  C   UNL     1     -43.888  42.916  24.255  1.00  0.00     0.043 C 
ATOM     25  H   UNL     1     -43.269  43.750  23.924  1.00  0.00     0.040 H 
ATOM     26  H   UNL     1     -43.588  42.008  23.728  1.00  0.00     0.040 H 
ATOM     27  H   UNL     1     -44.946  43.114  24.076  1.00  0.00     0.040 H 
ENDBRANCH  21  24
ENDBRANCH  11  21
BRANCH  16  28
ATOM     28  N   UNL     1     -46.672  44.055  25.793  1.00  0.00    -0.383 N 
ATOM     29  H   UNL     1     -47.091  44.398  24.929  1.00  0.00     0.158 HD
ATOM     30  H   UNL     1     -45.666  44.152  25.857  1.00  0.00     0.158 HD
ENDBRANCH  16  28
ENDBRANCH   1  10
BRANCH   5  31
ATOM     31  C   UNL     1     -48.129  35.172  26.751  1.00  0.00     0.115 C 
ATOM     32  H   UNL     1     -49.113  35.461  27.139  1.00  0.00     0.076 H 
ATOM     33  H   UNL     1     -48.177  35.299  25.664  1.00  0.00     0.076 H 
BRANCH  31  34
ATOM     34  O   UNL     1     -47.971  33.785  27.085  1.00  0.00    -0.489 OA
BRANCH  34  35
ATOM     35  C   UNL     1     -47.689  32.908  26.071  1.00  0.00     0.122 A 
ATOM     36  C   UNL     1     -46.801  33.135  25.027  1.00  0.00    -0.019 A 
ATOM     37  C   UNL     1     -48.350  31.678  26.164  1.00  0.00     0.007 A 
ATOM     38  C   UNL     1     -46.548  32.115  24.108  1.00  0.00    -0.049 A 
ATOM     39  H   UNL     1     -46.288  34.083  24.901  1.00  0.00     0.066 H 
ATOM     40  C   UNL     1     -48.092  30.639  25.285  1.00  0.00     0.076 A 
ATOM     41  H   UNL     1     -49.055  31.512  26.975  1.00  0.00     0.069 H 
ATOM     42  C   UNL     1     -47.177  30.865  24.242  1.00  0.00     0.001 A 
ATOM     43  H   UNL     1     -45.844  32.294  23.299  1.00  0.00     0.063 H 
ATOM     44  N   UNL     1     -48.696  29.453  25.476  1.00  0.00    -0.231 NA
ATOM     45  C   UNL     1     -46.913  29.805  23.371  1.00  0.00    -0.049 A 
ATOM     46  C   UNL     1     -48.436  28.433  24.627  1.00  0.00     0.129 A 
ATOM     47  C   UNL     1     -47.545  28.581  23.570  1.00  0.00    -0.019 A 
ATOM     48  H   UNL     1     -46.211  29.917  22.549  1.00  0.00     0.063 H 
ATOM     49  H   UNL     1     -47.326  27.749  22.908  1.00  0.00     0.066 H 
BRANCH  46  50
ATOM     50  N   UNL     1     -49.052  27.192  24.867  1.00  0.00    -0.356 N 
ATOM     51  C   UNL     1     -50.429  26.969  25.201  1.00  0.00     0.021 C 
ATOM     52  C   UNL     1     -48.595  26.235  25.835  1.00  0.00     0.021 C 
ATOM     53  C   UNL     1     -49.987  25.602  25.735  1.00  0.00    -0.018 C 
ATOM     54  H   UNL     1     -50.804  27.665  25.961  1.00  0.00     0.049 H 
ATOM     55  H   UNL     1     -51.093  26.947  24.334  1.00  0.00     0.049 H 
ATOM     56  H   UNL     1     -47.765  25.620  25.482  1.00  0.00     0.049 H 
ATOM     57  H   UNL     1     -48.361  26.686  26.806  1.00  0.00     0.049 H 
ATOM     58  H   UNL     1     -50.438  25.291  26.680  1.00  0.00     0.030 H 
ATOM     59  H   UNL     1     -50.061  24.787  25.007  1.00  0.00     0.030 H 
ENDBRANCH  46  50
ENDBRANCH  34  35
ENDBRANCH  31  34
ENDBRANCH   5  31
TORSDOF 8
ENDMDL
