MODEL 1
REMARK VINA RESULT:     -10.4      0.000      0.000
REMARK SMILES O=C(NCc1ccc2cc(CNCC3CCC3)[nH]c2c1)c1cccc2[nH]ncc12
REMARK SMILES IDX 5 1 6 2 7 3 8 4 9 5 10 6 18 7 19 8 20 9 4 15 3 18 1 19 2 20
REMARK SMILES IDX 21 22 22 23 29 24 23 25 25 27 28 28 24 29 26 31 27 32 11 36
REMARK SMILES IDX 12 39 13 41 14 44 15 45 17 46 16 48
REMARK H PARENT 6 10 7 11 9 12 18 13 20 14 4 16 4 17 3 21 22 26 23 30 28 33
REMARK H PARENT 24 34 26 35 11 37 11 38 12 40 13 42 13 43 14 47 15 49 15 50
REMARK H PARENT 17 51 17 52 16 53 16 54
REMARK Flexibility Score: inf
ROOT
ATOM      1  C   UNL     1     -47.913  34.297  26.289  1.00  0.00    -0.027 A 
ATOM      2  C   UNL     1     -46.634  34.240  25.721  1.00  0.00    -0.057 A 
ATOM      3  C   UNL     1     -46.231  33.139  24.954  1.00  0.00    -0.052 A 
ATOM      4  C   UNL     1     -47.124  32.071  24.757  1.00  0.00    -0.000 A 
ATOM      5  C   UNL     1     -47.051  30.834  24.061  1.00  0.00    -0.032 A 
ATOM      6  C   UNL     1     -48.256  30.176  24.222  1.00  0.00     0.030 A 
ATOM      7  N   UNL     1     -49.054  30.983  24.998  1.00  0.00    -0.357 N 
ATOM      8  C   UNL     1     -48.389  32.140  25.334  1.00  0.00     0.046 A 
ATOM      9  C   UNL     1     -48.812  33.231  26.102  1.00  0.00    -0.033 A 
ATOM     10  H   UNL     1     -45.932  35.058  25.868  1.00  0.00     0.063 H 
ATOM     11  H   UNL     1     -45.237  33.111  24.516  1.00  0.00     0.063 H 
ATOM     12  H   UNL     1     -46.205  30.455  23.504  1.00  0.00     0.065 H 
ATOM     13  H   UNL     1     -49.998  30.769  25.286  1.00  0.00     0.166 HD
ATOM     14  H   UNL     1     -49.802  33.256  26.549  1.00  0.00     0.065 H 
ENDROOT
BRANCH   1  15
ATOM     15  C   UNL     1     -48.324  35.473  27.140  1.00  0.00     0.043 C 
ATOM     16  H   UNL     1     -48.513  35.148  28.169  1.00  0.00     0.054 H 
ATOM     17  H   UNL     1     -49.252  35.916  26.763  1.00  0.00     0.054 H 
BRANCH  15  18
ATOM     18  N   UNL     1     -47.308  36.500  27.096  1.00  0.00    -0.348 N 
ATOM     19  O   UNL     1     -48.629  38.175  27.946  1.00  0.00    -0.269 OA
ATOM     20  C   UNL     1     -47.534  37.770  27.576  1.00  0.00     0.252 C 
ATOM     21  H   UNL     1     -46.384  36.222  26.798  1.00  0.00     0.164 HD
BRANCH  20  22
ATOM     22  C   UNL     1     -46.353  38.667  27.613  1.00  0.00     0.050 A 
ATOM     23  C   UNL     1     -46.075  39.567  26.567  1.00  0.00    -0.049 A 
ATOM     24  C   UNL     1     -45.465  38.606  28.706  1.00  0.00     0.032 A 
ATOM     25  C   UNL     1     -44.958  40.404  26.620  1.00  0.00    -0.059 A 
ATOM     26  H   UNL     1     -46.710  39.601  25.685  1.00  0.00     0.063 H 
ATOM     27  C   UNL     1     -44.363  39.456  28.729  1.00  0.00     0.066 A 
ATOM     28  C   UNL     1     -45.357  37.865  29.907  1.00  0.00     0.057 A 
ATOM     29  C   UNL     1     -44.080  40.370  27.708  1.00  0.00    -0.036 A 
ATOM     30  H   UNL     1     -44.761  41.088  25.797  1.00  0.00     0.062 H 
ATOM     31  N   UNL     1     -43.709  39.172  29.900  1.00  0.00    -0.278 N 
ATOM     32  N   UNL     1     -44.295  38.215  30.639  1.00  0.00    -0.183 NA
ATOM     33  H   UNL     1     -46.017  37.088  30.273  1.00  0.00     0.087 H 
ATOM     34  H   UNL     1     -43.212  41.020  27.747  1.00  0.00     0.065 H 
ATOM     35  H   UNL     1     -42.859  39.595  30.253  1.00  0.00     0.190 HD
ENDBRANCH  20  22
ENDBRANCH  15  18
ENDBRANCH   1  15
BRANCH   6  36
ATOM     36  C   UNL     1     -48.723  28.861  23.705  1.00  0.00     0.036 C 
ATOM     37  H   UNL     1     -48.397  28.750  22.664  1.00  0.00     0.049 H 
ATOM     38  H   UNL     1     -49.819  28.819  23.718  1.00  0.00     0.049 H 
BRANCH  36  39
ATOM     39  N   UNL     1     -48.157  27.798  24.528  1.00  0.00    -0.311 NA
ATOM     40  H   UNL     1     -47.174  28.000  24.701  1.00  0.00     0.123 HD
BRANCH  39  41
ATOM     41  C   UNL     1     -48.872  27.672  25.797  1.00  0.00    -0.002 C 
ATOM     42  H   UNL     1     -49.909  27.365  25.614  1.00  0.00     0.043 H 
ATOM     43  H   UNL     1     -48.896  28.638  26.314  1.00  0.00     0.043 H 
BRANCH  41  44
ATOM     44  C   UNL     1     -48.174  26.646  26.680  1.00  0.00    -0.029 C 
ATOM     45  C   UNL     1     -48.703  25.190  26.572  1.00  0.00    -0.049 C 
ATOM     46  C   UNL     1     -46.810  26.089  26.188  1.00  0.00    -0.049 C 
ATOM     47  H   UNL     1     -48.131  26.979  27.729  1.00  0.00     0.032 H 
ATOM     48  C   UNL     1     -47.244  24.724  26.759  1.00  0.00    -0.053 C 
ATOM     49  H   UNL     1     -49.402  24.880  27.353  1.00  0.00     0.027 H 
ATOM     50  H   UNL     1     -49.122  24.928  25.594  1.00  0.00     0.027 H 
ATOM     51  H   UNL     1     -46.684  26.087  25.100  1.00  0.00     0.027 H 
ATOM     52  H   UNL     1     -45.922  26.532  26.647  1.00  0.00     0.027 H 
ATOM     53  H   UNL     1     -46.961  24.573  27.808  1.00  0.00     0.027 H 
ATOM     54  H   UNL     1     -46.946  23.847  26.180  1.00  0.00     0.027 H 
ENDBRANCH  41  44
ENDBRANCH  39  41
ENDBRANCH  36  39
ENDBRANCH   6  36
TORSDOF 7
ENDMDL
MODEL 2
REMARK VINA RESULT:     -10.1      2.498     11.037
REMARK SMILES O=C(NCc1ccc2cc(CNCC3CCC3)[nH]c2c1)c1cccc2[nH]ncc12
REMARK SMILES IDX 5 1 6 2 7 3 8 4 9 5 10 6 18 7 19 8 20 9 4 15 3 18 1 19 2 20
REMARK SMILES IDX 21 22 22 23 29 24 23 25 25 27 28 28 24 29 26 31 27 32 11 36
REMARK SMILES IDX 12 39 13 41 14 44 15 45 17 46 16 48
REMARK H PARENT 6 10 7 11 9 12 18 13 20 14 4 16 4 17 3 21 22 26 23 30 28 33
REMARK H PARENT 24 34 26 35 11 37 11 38 12 40 13 42 13 43 14 47 15 49 15 50
REMARK H PARENT 17 51 17 52 16 53 16 54
REMARK Flexibility Score: inf
ROOT
ATOM      1  C   UNL     1     -47.549  32.025  24.771  1.00  0.00    -0.027 A 
ATOM      2  C   UNL     1     -48.753  32.045  25.486  1.00  0.00    -0.057 A 
ATOM      3  C   UNL     1     -49.109  33.148  26.273  1.00  0.00    -0.052 A 
ATOM      4  C   UNL     1     -48.238  34.250  26.352  1.00  0.00    -0.000 A 
ATOM      5  C   UNL     1     -48.275  35.496  27.035  1.00  0.00    -0.032 A 
ATOM      6  C   UNL     1     -47.117  36.187  26.735  1.00  0.00     0.030 A 
ATOM      7  N   UNL     1     -46.381  35.392  25.890  1.00  0.00    -0.357 N 
ATOM      8  C   UNL     1     -47.042  34.211  25.641  1.00  0.00     0.046 A 
ATOM      9  C   UNL     1     -46.668  33.119  24.847  1.00  0.00    -0.033 A 
ATOM     10  H   UNL     1     -49.435  31.199  25.436  1.00  0.00     0.063 H 
ATOM     11  H   UNL     1     -50.048  33.152  26.819  1.00  0.00     0.063 H 
ATOM     12  H   UNL     1     -49.062  35.852  27.686  1.00  0.00     0.065 H 
ATOM     13  H   UNL     1     -45.481  35.630  25.498  1.00  0.00     0.166 HD
ATOM     14  H   UNL     1     -45.725  33.110  24.309  1.00  0.00     0.065 H 
ENDROOT
BRANCH   1  15
ATOM     15  C   UNL     1     -47.162  30.819  23.952  1.00  0.00     0.043 C 
ATOM     16  H   UNL     1     -46.099  30.866  23.687  1.00  0.00     0.054 H 
ATOM     17  H   UNL     1     -47.730  30.789  23.017  1.00  0.00     0.054 H 
BRANCH  15  18
ATOM     18  N   UNL     1     -47.464  29.606  24.678  1.00  0.00    -0.348 N 
ATOM     19  O   UNL     1     -47.881  28.319  22.822  1.00  0.00    -0.269 OA
ATOM     20  C   UNL     1     -47.736  28.420  24.034  1.00  0.00     0.252 C 
ATOM     21  H   UNL     1     -47.361  29.631  25.681  1.00  0.00     0.164 HD
BRANCH  20  22
ATOM     22  C   UNL     1     -47.868  27.226  24.905  1.00  0.00     0.050 A 
ATOM     23  C   UNL     1     -46.751  26.456  25.279  1.00  0.00    -0.049 A 
ATOM     24  C   UNL     1     -49.145  26.827  25.351  1.00  0.00     0.032 A 
ATOM     25  C   UNL     1     -46.896  25.335  26.100  1.00  0.00    -0.059 A 
ATOM     26  H   UNL     1     -45.760  26.705  24.908  1.00  0.00     0.063 H 
ATOM     27  C   UNL     1     -49.253  25.707  26.171  1.00  0.00     0.066 A 
ATOM     28  C   UNL     1     -50.477  27.279  25.203  1.00  0.00     0.057 A 
ATOM     29  C   UNL     1     -48.153  24.941  26.569  1.00  0.00    -0.036 A 
ATOM     30  H   UNL     1     -46.017  24.753  26.372  1.00  0.00     0.062 H 
ATOM     31  N   UNL     1     -50.592  25.583  26.442  1.00  0.00    -0.278 N 
ATOM     32  N   UNL     1     -51.357  26.528  25.872  1.00  0.00    -0.183 NA
ATOM     33  H   UNL     1     -50.834  28.128  24.632  1.00  0.00     0.087 H 
ATOM     34  H   UNL     1     -48.263  24.068  27.206  1.00  0.00     0.065 H 
ATOM     35  H   UNL     1     -51.046  24.876  27.007  1.00  0.00     0.190 HD
ENDBRANCH  20  22
ENDBRANCH  15  18
ENDBRANCH   1  15
BRANCH   6  36
ATOM     36  C   UNL     1     -46.647  37.531  27.169  1.00  0.00     0.036 C 
ATOM     37  H   UNL     1     -47.511  38.201  27.256  1.00  0.00     0.049 H 
ATOM     38  H   UNL     1     -45.970  37.954  26.417  1.00  0.00     0.049 H 
BRANCH  36  39
ATOM     39  N   UNL     1     -45.972  37.407  28.456  1.00  0.00    -0.311 NA
ATOM     40  H   UNL     1     -45.181  36.774  28.356  1.00  0.00     0.123 HD
BRANCH  39  41
ATOM     41  C   UNL     1     -45.514  38.707  28.944  1.00  0.00    -0.002 C 
ATOM     42  H   UNL     1     -44.977  38.582  29.892  1.00  0.00     0.043 H 
ATOM     43  H   UNL     1     -46.372  39.363  29.129  1.00  0.00     0.043 H 
BRANCH  41  44
ATOM     44  C   UNL     1     -44.600  39.351  27.910  1.00  0.00    -0.029 C 
ATOM     45  C   UNL     1     -45.220  40.517  27.092  1.00  0.00    -0.049 C 
ATOM     46  C   UNL     1     -43.560  40.386  28.422  1.00  0.00    -0.049 C 
ATOM     47  H   UNL     1     -44.144  38.597  27.250  1.00  0.00     0.032 H 
ATOM     48  C   UNL     1     -43.831  41.186  27.132  1.00  0.00    -0.053 C 
ATOM     49  H   UNL     1     -45.590  40.254  26.099  1.00  0.00     0.027 H 
ATOM     50  H   UNL     1     -45.993  41.086  27.622  1.00  0.00     0.027 H 
ATOM     51  H   UNL     1     -43.855  40.916  29.335  1.00  0.00     0.027 H 
ATOM     52  H   UNL     1     -42.539  40.014  28.542  1.00  0.00     0.027 H 
ATOM     53  H   UNL     1     -43.182  40.905  26.293  1.00  0.00     0.027 H 
ATOM     54  H   UNL     1     -43.828  42.273  27.235  1.00  0.00     0.027 H 
ENDBRANCH  41  44
ENDBRANCH  39  41
ENDBRANCH  36  39
ENDBRANCH   6  36
TORSDOF 7
ENDMDL
MODEL 3
REMARK VINA RESULT:     -10.0      2.613      4.230
REMARK SMILES O=C(NCc1ccc2cc(CNCC3CCC3)[nH]c2c1)c1cccc2[nH]ncc12
REMARK SMILES IDX 5 1 6 2 7 3 8 4 9 5 10 6 18 7 19 8 20 9 4 15 3 18 1 19 2 20
REMARK SMILES IDX 21 22 22 23 29 24 23 25 25 27 28 28 24 29 26 31 27 32 11 36
REMARK SMILES IDX 12 39 13 41 14 44 15 45 17 46 16 48
REMARK H PARENT 6 10 7 11 9 12 18 13 20 14 4 16 4 17 3 21 22 26 23 30 28 33
REMARK H PARENT 24 34 26 35 11 37 11 38 12 40 13 42 13 43 14 47 15 49 15 50
REMARK H PARENT 17 51 17 52 16 53 16 54
REMARK Flexibility Score: inf
ROOT
ATOM      1  C   UNL     1     -46.272  36.433  28.408  1.00  0.00    -0.027 A 
ATOM      2  C   UNL     1     -47.658  36.501  28.217  1.00  0.00    -0.057 A 
ATOM      3  C   UNL     1     -48.313  35.622  27.344  1.00  0.00    -0.052 A 
ATOM      4  C   UNL     1     -47.564  34.660  26.643  1.00  0.00    -0.000 A 
ATOM      5  C   UNL     1     -47.888  33.643  25.705  1.00  0.00    -0.032 A 
ATOM      6  C   UNL     1     -46.720  32.998  25.346  1.00  0.00     0.030 A 
ATOM      7  N   UNL     1     -45.698  33.598  26.043  1.00  0.00    -0.357 N 
ATOM      8  C   UNL     1     -46.186  34.610  26.839  1.00  0.00     0.046 A 
ATOM      9  C   UNL     1     -45.513  35.477  27.707  1.00  0.00    -0.033 A 
ATOM     10  H   UNL     1     -48.248  37.243  28.751  1.00  0.00     0.063 H 
ATOM     11  H   UNL     1     -49.389  35.684  27.210  1.00  0.00     0.063 H 
ATOM     12  H   UNL     1     -48.872  33.407  25.321  1.00  0.00     0.065 H 
ATOM     13  H   UNL     1     -44.723  33.342  25.988  1.00  0.00     0.166 HD
ATOM     14  H   UNL     1     -44.435  35.423  27.835  1.00  0.00     0.065 H 
ENDROOT
BRANCH   1  15
ATOM     15  C   UNL     1     -45.573  37.405  29.325  1.00  0.00     0.043 C 
ATOM     16  H   UNL     1     -44.925  36.866  30.026  1.00  0.00     0.054 H 
ATOM     17  H   UNL     1     -46.301  37.965  29.921  1.00  0.00     0.054 H 
BRANCH  15  18
ATOM     18  N   UNL     1     -44.819  38.366  28.552  1.00  0.00    -0.348 N 
ATOM     19  O   UNL     1     -46.535  39.874  28.313  1.00  0.00    -0.269 OA
ATOM     20  C   UNL     1     -45.357  39.572  28.163  1.00  0.00     0.252 C 
ATOM     21  H   UNL     1     -43.842  38.169  28.398  1.00  0.00     0.164 HD
BRANCH  20  22
ATOM     22  C   UNL     1     -44.419  40.521  27.517  1.00  0.00     0.050 A 
ATOM     23  C   UNL     1     -44.663  41.043  26.233  1.00  0.00    -0.049 A 
ATOM     24  C   UNL     1     -43.235  40.895  28.185  1.00  0.00     0.032 A 
ATOM     25  C   UNL     1     -43.766  41.936  25.640  1.00  0.00    -0.059 A 
ATOM     26  H   UNL     1     -45.539  40.733  25.668  1.00  0.00     0.063 H 
ATOM     27  C   UNL     1     -42.365  41.790  27.568  1.00  0.00     0.066 A 
ATOM     28  C   UNL     1     -42.614  40.605  29.423  1.00  0.00     0.057 A 
ATOM     29  C   UNL     1     -42.599  42.334  26.301  1.00  0.00    -0.036 A 
ATOM     30  H   UNL     1     -43.974  42.322  24.644  1.00  0.00     0.062 H 
ATOM     31  N   UNL     1     -41.332  41.962  28.453  1.00  0.00    -0.278 N 
ATOM     32  N   UNL     1     -41.461  41.260  29.591  1.00  0.00    -0.183 NA
ATOM     33  H   UNL     1     -42.963  39.943  30.206  1.00  0.00     0.087 H 
ATOM     34  H   UNL     1     -41.903  43.026  25.838  1.00  0.00     0.065 H 
ATOM     35  H   UNL     1     -40.511  42.544  28.340  1.00  0.00     0.190 HD
ENDBRANCH  20  22
ENDBRANCH  15  18
ENDBRANCH   1  15
BRANCH   6  36
ATOM     36  C   UNL     1     -46.483  31.863  24.412  1.00  0.00     0.036 C 
ATOM     37  H   UNL     1     -45.430  31.562  24.475  1.00  0.00     0.049 H 
ATOM     38  H   UNL     1     -46.679  32.179  23.380  1.00  0.00     0.049 H 
BRANCH  36  39
ATOM     39  N   UNL     1     -47.350  30.752  24.784  1.00  0.00    -0.311 NA
ATOM     40  H   UNL     1     -47.987  31.059  25.517  1.00  0.00     0.123 HD
BRANCH  39  41
ATOM     41  C   UNL     1     -48.108  30.261  23.635  1.00  0.00    -0.002 C 
ATOM     42  H   UNL     1     -48.617  29.325  23.895  1.00  0.00     0.043 H 
ATOM     43  H   UNL     1     -47.432  30.053  22.798  1.00  0.00     0.043 H 
BRANCH  41  44
ATOM     44  C   UNL     1     -49.130  31.307  23.209  1.00  0.00    -0.029 C 
ATOM     45  C   UNL     1     -49.814  31.065  21.836  1.00  0.00    -0.049 C 
ATOM     46  C   UNL     1     -50.551  31.212  23.829  1.00  0.00    -0.049 C 
ATOM     47  H   UNL     1     -48.716  32.325  23.276  1.00  0.00     0.032 H 
ATOM     48  C   UNL     1     -51.100  31.648  22.456  1.00  0.00    -0.053 C 
ATOM     49  H   UNL     1     -49.399  31.624  20.994  1.00  0.00     0.027 H 
ATOM     50  H   UNL     1     -49.906  30.010  21.551  1.00  0.00     0.027 H 
ATOM     51  H   UNL     1     -50.855  30.200  24.120  1.00  0.00     0.027 H 
ATOM     52  H   UNL     1     -50.755  31.895  24.658  1.00  0.00     0.027 H 
ATOM     53  H   UNL     1     -51.191  32.735  22.341  1.00  0.00     0.027 H 
ATOM     54  H   UNL     1     -52.035  31.177  22.144  1.00  0.00     0.027 H 
ENDBRANCH  41  44
ENDBRANCH  39  41
ENDBRANCH  36  39
ENDBRANCH   6  36
TORSDOF 7
ENDMDL
MODEL 4
REMARK VINA RESULT:      -9.9      1.575      2.395
REMARK SMILES O=C(NCc1ccc2cc(CNCC3CCC3)[nH]c2c1)c1cccc2[nH]ncc12
REMARK SMILES IDX 5 1 6 2 7 3 8 4 9 5 10 6 18 7 19 8 20 9 4 15 3 18 1 19 2 20
REMARK SMILES IDX 21 22 22 23 29 24 23 25 25 27 28 28 24 29 26 31 27 32 11 36
REMARK SMILES IDX 12 39 13 41 14 44 15 45 17 46 16 48
REMARK H PARENT 6 10 7 11 9 12 18 13 20 14 4 16 4 17 3 21 22 26 23 30 28 33
REMARK H PARENT 24 34 26 35 11 37 11 38 12 40 13 42 13 43 14 47 15 49 15 50
REMARK H PARENT 17 51 17 52 16 53 16 54
REMARK Flexibility Score: inf
ROOT
ATOM      1  C   UNL     1     -47.691  35.630  26.933  1.00  0.00    -0.027 A 
ATOM      2  C   UNL     1     -46.396  35.316  26.502  1.00  0.00    -0.057 A 
ATOM      3  C   UNL     1     -46.111  34.077  25.912  1.00  0.00    -0.052 A 
ATOM      4  C   UNL     1     -47.141  33.133  25.756  1.00  0.00    -0.000 A 
ATOM      5  C   UNL     1     -47.207  31.818  25.220  1.00  0.00    -0.032 A 
ATOM      6  C   UNL     1     -48.507  31.367  25.341  1.00  0.00     0.030 A 
ATOM      7  N   UNL     1     -49.229  32.375  25.937  1.00  0.00    -0.357 N 
ATOM      8  C   UNL     1     -48.421  33.458  26.197  1.00  0.00     0.046 A 
ATOM      9  C   UNL     1     -48.728  34.689  26.788  1.00  0.00    -0.033 A 
ATOM     10  H   UNL     1     -45.590  36.037  26.619  1.00  0.00     0.063 H 
ATOM     11  H   UNL     1     -45.102  33.850  25.578  1.00  0.00     0.063 H 
ATOM     12  H   UNL     1     -46.389  31.251  24.795  1.00  0.00     0.065 H 
ATOM     13  H   UNL     1     -50.214  32.338  26.156  1.00  0.00     0.166 HD
ATOM     14  H   UNL     1     -49.733  34.915  27.131  1.00  0.00     0.065 H 
ENDROOT
BRANCH   1  15
ATOM     15  C   UNL     1     -47.981  36.953  27.597  1.00  0.00     0.043 C 
ATOM     16  H   UNL     1     -48.692  36.817  28.420  1.00  0.00     0.054 H 
ATOM     17  H   UNL     1     -48.436  37.650  26.885  1.00  0.00     0.054 H 
BRANCH  15  18
ATOM     18  N   UNL     1     -46.752  37.556  28.063  1.00  0.00    -0.348 N 
ATOM     19  O   UNL     1     -46.540  39.037  26.321  1.00  0.00    -0.269 OA
ATOM     20  C   UNL     1     -46.163  38.613  27.407  1.00  0.00     0.252 C 
ATOM     21  H   UNL     1     -46.396  37.244  28.955  1.00  0.00     0.164 HD
BRANCH  20  22
ATOM     22  C   UNL     1     -44.999  39.230  28.088  1.00  0.00     0.050 A 
ATOM     23  C   UNL     1     -44.529  38.754  29.326  1.00  0.00    -0.049 A 
ATOM     24  C   UNL     1     -44.358  40.341  27.503  1.00  0.00     0.032 A 
ATOM     25  C   UNL     1     -43.431  39.349  29.952  1.00  0.00    -0.059 A 
ATOM     26  H   UNL     1     -45.034  37.933  29.830  1.00  0.00     0.063 H 
ATOM     27  C   UNL     1     -43.265  40.909  28.152  1.00  0.00     0.066 A 
ATOM     28  C   UNL     1     -44.510  41.121  26.332  1.00  0.00     0.057 A 
ATOM     29  C   UNL     1     -42.771  40.437  29.373  1.00  0.00    -0.036 A 
ATOM     30  H   UNL     1     -43.088  38.966  30.912  1.00  0.00     0.062 H 
ATOM     31  N   UNL     1     -42.860  41.942  27.347  1.00  0.00    -0.278 N 
ATOM     32  N   UNL     1     -43.595  42.090  26.232  1.00  0.00    -0.183 NA
ATOM     33  H   UNL     1     -45.253  41.015  25.551  1.00  0.00     0.087 H 
ATOM     34  H   UNL     1     -41.919  40.900  29.862  1.00  0.00     0.065 H 
ATOM     35  H   UNL     1     -42.092  42.583  27.502  1.00  0.00     0.190 HD
ENDBRANCH  20  22
ENDBRANCH  15  18
ENDBRANCH   1  15
BRANCH   6  36
ATOM     36  C   UNL     1     -49.131  30.076  24.940  1.00  0.00     0.036 C 
ATOM     37  H   UNL     1     -49.453  30.145  23.894  1.00  0.00     0.049 H 
ATOM     38  H   UNL     1     -50.020  29.882  25.551  1.00  0.00     0.049 H 
BRANCH  36  39
ATOM     39  N   UNL     1     -48.153  29.006  25.099  1.00  0.00    -0.311 NA
ATOM     40  H   UNL     1     -47.273  29.406  25.422  1.00  0.00     0.123 HD
BRANCH  39  41
ATOM     41  C   UNL     1     -48.621  27.996  26.046  1.00  0.00    -0.002 C 
ATOM     42  H   UNL     1     -49.713  27.907  25.989  1.00  0.00     0.043 H 
ATOM     43  H   UNL     1     -48.362  28.290  27.070  1.00  0.00     0.043 H 
BRANCH  41  44
ATOM     44  C   UNL     1     -47.973  26.654  25.729  1.00  0.00    -0.029 C 
ATOM     45  C   UNL     1     -46.909  26.159  26.745  1.00  0.00    -0.049 C 
ATOM     46  C   UNL     1     -48.774  25.372  26.084  1.00  0.00    -0.049 C 
ATOM     47  H   UNL     1     -47.585  26.629  24.698  1.00  0.00     0.032 H 
ATOM     48  C   UNL     1     -47.430  24.731  26.485  1.00  0.00    -0.053 C 
ATOM     49  H   UNL     1     -45.868  26.341  26.468  1.00  0.00     0.027 H 
ATOM     50  H   UNL     1     -47.068  26.501  27.775  1.00  0.00     0.027 H 
ATOM     51  H   UNL     1     -49.471  25.486  26.922  1.00  0.00     0.027 H 
ATOM     52  H   UNL     1     -49.297  24.892  25.252  1.00  0.00     0.027 H 
ATOM     53  H   UNL     1     -46.921  24.220  25.659  1.00  0.00     0.027 H 
ATOM     54  H   UNL     1     -47.458  24.068  27.352  1.00  0.00     0.027 H 
ENDBRANCH  41  44
ENDBRANCH  39  41
ENDBRANCH  36  39
ENDBRANCH   6  36
TORSDOF 7
ENDMDL
MODEL 5
REMARK VINA RESULT:      -9.7      2.432     10.795
REMARK SMILES O=C(NCc1ccc2cc(CNCC3CCC3)[nH]c2c1)c1cccc2[nH]ncc12
REMARK SMILES IDX 5 1 6 2 7 3 8 4 9 5 10 6 18 7 19 8 20 9 4 15 3 18 1 19 2 20
REMARK SMILES IDX 21 22 22 23 29 24 23 25 25 27 28 28 24 29 26 31 27 32 11 36
REMARK SMILES IDX 12 39 13 41 14 44 15 45 17 46 16 48
REMARK H PARENT 6 10 7 11 9 12 18 13 20 14 4 16 4 17 3 21 22 26 23 30 28 33
REMARK H PARENT 24 34 26 35 11 37 11 38 12 40 13 42 13 43 14 47 15 49 15 50
REMARK H PARENT 17 51 17 52 16 53 16 54
REMARK Flexibility Score: inf
ROOT
ATOM      1  C   UNL     1     -48.536  32.290  25.257  1.00  0.00    -0.027 A 
ATOM      2  C   UNL     1     -47.206  32.344  24.822  1.00  0.00    -0.057 A 
ATOM      3  C   UNL     1     -46.369  33.408  25.183  1.00  0.00    -0.052 A 
ATOM      4  C   UNL     1     -46.876  34.441  25.991  1.00  0.00    -0.000 A 
ATOM      5  C   UNL     1     -46.328  35.637  26.530  1.00  0.00    -0.032 A 
ATOM      6  C   UNL     1     -47.315  36.274  27.258  1.00  0.00     0.030 A 
ATOM      7  N   UNL     1     -48.444  35.495  27.172  1.00  0.00    -0.357 N 
ATOM      8  C   UNL     1     -48.202  34.376  26.410  1.00  0.00     0.046 A 
ATOM      9  C   UNL     1     -49.054  33.322  26.061  1.00  0.00    -0.033 A 
ATOM     10  H   UNL     1     -46.802  31.552  24.194  1.00  0.00     0.063 H 
ATOM     11  H   UNL     1     -45.338  33.434  24.842  1.00  0.00     0.063 H 
ATOM     12  H   UNL     1     -45.319  36.003  26.397  1.00  0.00     0.065 H 
ATOM     13  H   UNL     1     -49.333  35.704  27.605  1.00  0.00     0.166 HD
ATOM     14  H   UNL     1     -50.088  33.299  26.394  1.00  0.00     0.065 H 
ENDROOT
BRANCH   1  15
ATOM     15  C   UNL     1     -49.437  31.156  24.835  1.00  0.00     0.043 C 
ATOM     16  H   UNL     1     -49.560  31.156  23.746  1.00  0.00     0.054 H 
ATOM     17  H   UNL     1     -50.433  31.271  25.275  1.00  0.00     0.054 H 
BRANCH  15  18
ATOM     18  N   UNL     1     -48.904  29.896  25.300  1.00  0.00    -0.348 N 
ATOM     19  O   UNL     1     -50.498  28.581  24.299  1.00  0.00    -0.269 OA
ATOM     20  C   UNL     1     -49.453  28.690  24.928  1.00  0.00     0.252 C 
ATOM     21  H   UNL     1     -48.041  29.926  25.824  1.00  0.00     0.164 HD
BRANCH  20  22
ATOM     22  C   UNL     1     -48.705  27.480  25.350  1.00  0.00     0.050 A 
ATOM     23  C   UNL     1     -49.200  26.613  26.341  1.00  0.00    -0.049 A 
ATOM     24  C   UNL     1     -47.452  27.198  24.770  1.00  0.00     0.032 A 
ATOM     25  C   UNL     1     -48.481  25.479  26.726  1.00  0.00    -0.059 A 
ATOM     26  H   UNL     1     -50.138  26.831  26.847  1.00  0.00     0.063 H 
ATOM     27  C   UNL     1     -46.763  26.057  25.172  1.00  0.00     0.066 A 
ATOM     28  C   UNL     1     -46.609  27.787  23.797  1.00  0.00     0.057 A 
ATOM     29  C   UNL     1     -47.247  25.173  26.142  1.00  0.00    -0.036 A 
ATOM     30  H   UNL     1     -48.883  24.826  27.498  1.00  0.00     0.062 H 
ATOM     31  N   UNL     1     -45.607  26.051  24.435  1.00  0.00    -0.278 N 
ATOM     32  N   UNL     1     -45.491  27.086  23.587  1.00  0.00    -0.183 NA
ATOM     33  H   UNL     1     -46.773  28.699  23.236  1.00  0.00     0.087 H 
ATOM     34  H   UNL     1     -46.689  24.292  26.444  1.00  0.00     0.065 H 
ATOM     35  H   UNL     1     -44.858  25.370  24.464  1.00  0.00     0.190 HD
ENDBRANCH  20  22
ENDBRANCH  15  18
ENDBRANCH   1  15
BRANCH   6  36
ATOM     36  C   UNL     1     -47.285  37.547  28.030  1.00  0.00     0.036 C 
ATOM     37  H   UNL     1     -47.207  37.314  29.099  1.00  0.00     0.049 H 
ATOM     38  H   UNL     1     -48.219  38.101  27.877  1.00  0.00     0.049 H 
BRANCH  36  39
ATOM     39  N   UNL     1     -46.140  38.338  27.599  1.00  0.00    -0.311 NA
ATOM     40  H   UNL     1     -45.597  37.799  26.927  1.00  0.00     0.123 HD
BRANCH  39  41
ATOM     41  C   UNL     1     -46.563  39.603  27.001  1.00  0.00    -0.002 C 
ATOM     42  H   UNL     1     -47.447  39.987  27.524  1.00  0.00     0.043 H 
ATOM     43  H   UNL     1     -46.836  39.451  25.950  1.00  0.00     0.043 H 
BRANCH  41  44
ATOM     44  C   UNL     1     -45.429  40.617  27.085  1.00  0.00    -0.029 C 
ATOM     45  C   UNL     1     -44.239  40.227  28.004  1.00  0.00    -0.049 C 
ATOM     46  C   UNL     1     -44.401  40.638  25.920  1.00  0.00    -0.049 C 
ATOM     47  H   UNL     1     -45.805  41.624  27.323  1.00  0.00     0.032 H 
ATOM     48  C   UNL     1     -43.316  40.917  26.979  1.00  0.00    -0.053 C 
ATOM     49  H   UNL     1     -44.249  40.667  29.004  1.00  0.00     0.027 H 
ATOM     50  H   UNL     1     -44.065  39.148  28.091  1.00  0.00     0.027 H 
ATOM     51  H   UNL     1     -44.274  39.678  25.406  1.00  0.00     0.027 H 
ATOM     52  H   UNL     1     -44.546  41.423  25.173  1.00  0.00     0.027 H 
ATOM     53  H   UNL     1     -43.157  41.984  27.178  1.00  0.00     0.027 H 
ATOM     54  H   UNL     1     -42.349  40.438  26.810  1.00  0.00     0.027 H 
ENDBRANCH  41  44
ENDBRANCH  39  41
ENDBRANCH  36  39
ENDBRANCH   6  36
TORSDOF 7
ENDMDL
MODEL 6
REMARK VINA RESULT:      -9.5      1.982      2.556
REMARK SMILES O=C(NCc1ccc2cc(CNCC3CCC3)[nH]c2c1)c1cccc2[nH]ncc12
REMARK SMILES IDX 5 1 6 2 7 3 8 4 9 5 10 6 18 7 19 8 20 9 4 15 3 18 1 19 2 20
REMARK SMILES IDX 21 22 22 23 29 24 23 25 25 27 28 28 24 29 26 31 27 32 11 36
REMARK SMILES IDX 12 39 13 41 14 44 15 45 17 46 16 48
REMARK H PARENT 6 10 7 11 9 12 18 13 20 14 4 16 4 17 3 21 22 26 23 30 28 33
REMARK H PARENT 24 34 26 35 11 37 11 38 12 40 13 42 13 43 14 47 15 49 15 50
REMARK H PARENT 17 51 17 52 16 53 16 54
REMARK Flexibility Score: inf
ROOT
ATOM      1  C   UNL     1     -47.865  35.415  26.894  1.00  0.00    -0.027 A 
ATOM      2  C   UNL     1     -46.586  35.286  26.339  1.00  0.00    -0.057 A 
ATOM      3  C   UNL     1     -46.231  34.153  25.594  1.00  0.00    -0.052 A 
ATOM      4  C   UNL     1     -47.174  33.127  25.407  1.00  0.00    -0.000 A 
ATOM      5  C   UNL     1     -47.156  31.876  24.731  1.00  0.00    -0.032 A 
ATOM      6  C   UNL     1     -48.393  31.281  24.893  1.00  0.00     0.030 A 
ATOM      7  N   UNL     1     -49.158  32.139  25.647  1.00  0.00    -0.357 N 
ATOM      8  C   UNL     1     -48.439  33.268  25.970  1.00  0.00     0.046 A 
ATOM      9  C   UNL     1     -48.814  34.391  26.717  1.00  0.00    -0.033 A 
ATOM     10  H   UNL     1     -45.846  36.071  26.480  1.00  0.00     0.063 H 
ATOM     11  H   UNL     1     -45.236  34.068  25.166  1.00  0.00     0.063 H 
ATOM     12  H   UNL     1     -46.325  31.446  24.189  1.00  0.00     0.065 H 
ATOM     13  H   UNL     1     -50.113  31.976  25.930  1.00  0.00     0.166 HD
ATOM     14  H   UNL     1     -49.806  34.473  27.153  1.00  0.00     0.065 H 
ENDROOT
BRANCH   1  15
ATOM     15  C   UNL     1     -48.226  36.623  27.721  1.00  0.00     0.043 C 
ATOM     16  H   UNL     1     -48.011  36.436  28.780  1.00  0.00     0.054 H 
ATOM     17  H   UNL     1     -49.296  36.842  27.640  1.00  0.00     0.054 H 
BRANCH  15  18
ATOM     18  N   UNL     1     -47.512  37.786  27.242  1.00  0.00    -0.348 N 
ATOM     19  O   UNL     1     -46.647  38.388  29.282  1.00  0.00    -0.269 OA
ATOM     20  C   UNL     1     -46.714  38.543  28.069  1.00  0.00     0.252 C 
ATOM     21  H   UNL     1     -47.533  37.962  26.249  1.00  0.00     0.164 HD
BRANCH  20  22
ATOM     22  C   UNL     1     -45.920  39.606  27.406  1.00  0.00     0.050 A 
ATOM     23  C   UNL     1     -44.520  39.519  27.289  1.00  0.00    -0.049 A 
ATOM     24  C   UNL     1     -46.570  40.751  26.903  1.00  0.00     0.032 A 
ATOM     25  C   UNL     1     -43.789  40.531  26.662  1.00  0.00    -0.059 A 
ATOM     26  H   UNL     1     -43.982  38.675  27.715  1.00  0.00     0.063 H 
ATOM     27  C   UNL     1     -45.812  41.739  26.279  1.00  0.00     0.066 A 
ATOM     28  C   UNL     1     -47.898  41.235  26.831  1.00  0.00     0.057 A 
ATOM     29  C   UNL     1     -44.423  41.661  26.137  1.00  0.00    -0.036 A 
ATOM     30  H   UNL     1     -42.706  40.443  26.587  1.00  0.00     0.062 H 
ATOM     31  N   UNL     1     -46.713  42.699  25.894  1.00  0.00    -0.278 N 
ATOM     32  N   UNL     1     -47.987  42.415  26.210  1.00  0.00    -0.183 NA
ATOM     33  H   UNL     1     -48.800  40.767  27.206  1.00  0.00     0.087 H 
ATOM     34  H   UNL     1     -43.853  42.447  25.651  1.00  0.00     0.065 H 
ATOM     35  H   UNL     1     -46.521  43.569  25.414  1.00  0.00     0.190 HD
ENDBRANCH  20  22
ENDBRANCH  15  18
ENDBRANCH   1  15
BRANCH   6  36
ATOM     36  C   UNL     1     -48.920  29.981  24.393  1.00  0.00     0.036 C 
ATOM     37  H   UNL     1     -48.542  29.809  23.378  1.00  0.00     0.049 H 
ATOM     38  H   UNL     1     -50.015  30.015  24.340  1.00  0.00     0.049 H 
BRANCH  36  39
ATOM     39  N   UNL     1     -48.479  28.915  25.285  1.00  0.00    -0.311 NA
ATOM     40  H   UNL     1     -49.289  28.530  25.767  1.00  0.00     0.123 HD
BRANCH  39  41
ATOM     41  C   UNL     1     -47.786  27.860  24.549  1.00  0.00    -0.002 C 
ATOM     42  H   UNL     1     -46.719  28.102  24.463  1.00  0.00     0.043 H 
ATOM     43  H   UNL     1     -48.193  27.777  23.535  1.00  0.00     0.043 H 
BRANCH  41  44
ATOM     44  C   UNL     1     -47.960  26.530  25.272  1.00  0.00    -0.029 C 
ATOM     45  C   UNL     1     -46.664  25.701  25.484  1.00  0.00    -0.049 C 
ATOM     46  C   UNL     1     -48.078  26.568  26.821  1.00  0.00    -0.049 C 
ATOM     47  H   UNL     1     -48.753  25.922  24.811  1.00  0.00     0.032 H 
ATOM     48  C   UNL     1     -47.251  25.267  26.843  1.00  0.00    -0.053 C 
ATOM     49  H   UNL     1     -46.493  24.897  24.765  1.00  0.00     0.027 H 
ATOM     50  H   UNL     1     -45.749  26.299  25.575  1.00  0.00     0.027 H 
ATOM     51  H   UNL     1     -47.572  27.416  27.296  1.00  0.00     0.027 H 
ATOM     52  H   UNL     1     -49.092  26.491  27.222  1.00  0.00     0.027 H 
ATOM     53  H   UNL     1     -47.860  24.356  26.789  1.00  0.00     0.027 H 
ATOM     54  H   UNL     1     -46.536  25.171  27.662  1.00  0.00     0.027 H 
ENDBRANCH  41  44
ENDBRANCH  39  41
ENDBRANCH  36  39
ENDBRANCH   6  36
TORSDOF 7
ENDMDL
MODEL 7
REMARK VINA RESULT:      -9.4      2.539      4.441
REMARK SMILES O=C(NCc1ccc2cc(CNCC3CCC3)[nH]c2c1)c1cccc2[nH]ncc12
REMARK SMILES IDX 5 1 6 2 7 3 8 4 9 5 10 6 18 7 19 8 20 9 4 15 3 18 1 19 2 20
REMARK SMILES IDX 21 22 22 23 29 24 23 25 25 27 28 28 24 29 26 31 27 32 11 36
REMARK SMILES IDX 12 39 13 41 14 44 15 45 17 46 16 48
REMARK H PARENT 6 10 7 11 9 12 18 13 20 14 4 16 4 17 3 21 22 26 23 30 28 33
REMARK H PARENT 24 34 26 35 11 37 11 38 12 40 13 42 13 43 14 47 15 49 15 50
REMARK H PARENT 17 51 17 52 16 53 16 54
REMARK Flexibility Score: inf
ROOT
ATOM      1  C   UNL     1     -46.882  36.891  27.929  1.00  0.00    -0.027 A 
ATOM      2  C   UNL     1     -45.663  36.228  28.120  1.00  0.00    -0.057 A 
ATOM      3  C   UNL     1     -45.493  34.896  27.718  1.00  0.00    -0.052 A 
ATOM      4  C   UNL     1     -46.567  34.213  27.119  1.00  0.00    -0.000 A 
ATOM      5  C   UNL     1     -46.743  32.899  26.609  1.00  0.00    -0.032 A 
ATOM      6  C   UNL     1     -48.038  32.789  26.138  1.00  0.00     0.030 A 
ATOM      7  N   UNL     1     -48.648  34.003  26.350  1.00  0.00    -0.357 N 
ATOM      8  C   UNL     1     -47.773  34.885  26.944  1.00  0.00     0.046 A 
ATOM      9  C   UNL     1     -47.964  36.215  27.337  1.00  0.00    -0.033 A 
ATOM     10  H   UNL     1     -44.825  36.744  28.584  1.00  0.00     0.063 H 
ATOM     11  H   UNL     1     -44.540  34.397  27.868  1.00  0.00     0.063 H 
ATOM     12  H   UNL     1     -46.006  32.107  26.593  1.00  0.00     0.065 H 
ATOM     13  H   UNL     1     -49.602  34.228  26.108  1.00  0.00     0.166 HD
ATOM     14  H   UNL     1     -48.919  36.713  27.196  1.00  0.00     0.065 H 
ENDROOT
BRANCH   1  15
ATOM     15  C   UNL     1     -47.064  38.314  28.395  1.00  0.00     0.043 C 
ATOM     16  H   UNL     1     -47.688  38.341  29.296  1.00  0.00     0.054 H 
ATOM     17  H   UNL     1     -47.573  38.909  27.630  1.00  0.00     0.054 H 
BRANCH  15  18
ATOM     18  N   UNL     1     -45.777  38.929  28.633  1.00  0.00    -0.348 N 
ATOM     19  O   UNL     1     -45.511  39.749  26.505  1.00  0.00    -0.269 OA
ATOM     20  C   UNL     1     -45.132  39.666  27.666  1.00  0.00     0.252 C 
ATOM     21  H   UNL     1     -45.416  38.891  29.575  1.00  0.00     0.164 HD
BRANCH  20  22
ATOM     22  C   UNL     1     -43.901  40.369  28.103  1.00  0.00     0.050 A 
ATOM     23  C   UNL     1     -43.249  40.041  29.306  1.00  0.00    -0.049 A 
ATOM     24  C   UNL     1     -43.378  41.414  27.314  1.00  0.00     0.032 A 
ATOM     25  C   UNL     1     -42.091  40.715  29.701  1.00  0.00    -0.059 A 
ATOM     26  H   UNL     1     -43.656  39.277  29.964  1.00  0.00     0.063 H 
ATOM     27  C   UNL     1     -42.220  42.063  27.734  1.00  0.00     0.066 A 
ATOM     28  C   UNL     1     -43.713  42.055  26.098  1.00  0.00     0.057 A 
ATOM     29  C   UNL     1     -41.547  41.738  28.917  1.00  0.00    -0.036 A 
ATOM     30  H   UNL     1     -41.607  40.446  30.638  1.00  0.00     0.062 H 
ATOM     31  N   UNL     1     -41.960  43.003  26.771  1.00  0.00    -0.278 N 
ATOM     32  N   UNL     1     -42.847  43.016  25.762  1.00  0.00    -0.183 NA
ATOM     33  H   UNL     1     -44.555  41.853  25.447  1.00  0.00     0.087 H 
ATOM     34  H   UNL     1     -40.648  42.262  29.226  1.00  0.00     0.065 H 
ATOM     35  H   UNL     1     -41.195  43.666  26.744  1.00  0.00     0.190 HD
ENDBRANCH  20  22
ENDBRANCH  15  18
ENDBRANCH   1  15
BRANCH   6  36
ATOM     36  C   UNL     1     -48.747  31.646  25.500  1.00  0.00     0.036 C 
ATOM     37  H   UNL     1     -49.278  32.007  24.611  1.00  0.00     0.049 H 
ATOM     38  H   UNL     1     -49.493  31.234  26.191  1.00  0.00     0.049 H 
BRANCH  36  39
ATOM     39  N   UNL     1     -47.772  30.628  25.129  1.00  0.00    -0.311 NA
ATOM     40  H   UNL     1     -47.616  30.012  25.925  1.00  0.00     0.123 HD
BRANCH  39  41
ATOM     41  C   UNL     1     -48.225  29.852  23.977  1.00  0.00    -0.002 C 
ATOM     42  H   UNL     1     -49.089  29.237  24.257  1.00  0.00     0.043 H 
ATOM     43  H   UNL     1     -47.430  29.178  23.639  1.00  0.00     0.043 H 
BRANCH  41  44
ATOM     44  C   UNL     1     -48.604  30.793  22.840  1.00  0.00    -0.029 C 
ATOM     45  C   UNL     1     -47.941  30.496  21.467  1.00  0.00    -0.049 C 
ATOM     46  C   UNL     1     -49.965  30.546  22.132  1.00  0.00    -0.049 C 
ATOM     47  H   UNL     1     -48.472  31.847  23.129  1.00  0.00     0.032 H 
ATOM     48  C   UNL     1     -49.267  30.939  20.815  1.00  0.00    -0.053 C 
ATOM     49  H   UNL     1     -47.067  31.104  21.222  1.00  0.00     0.027 H 
ATOM     50  H   UNL     1     -47.701  29.440  21.295  1.00  0.00     0.027 H 
ATOM     51  H   UNL     1     -50.308  29.506  22.152  1.00  0.00     0.027 H 
ATOM     52  H   UNL     1     -50.787  31.196  22.443  1.00  0.00     0.027 H 
ATOM     53  H   UNL     1     -49.312  32.012  20.593  1.00  0.00     0.027 H 
ATOM     54  H   UNL     1     -49.572  30.378  19.928  1.00  0.00     0.027 H 
ENDBRANCH  41  44
ENDBRANCH  39  41
ENDBRANCH  36  39
ENDBRANCH   6  36
TORSDOF 7
ENDMDL
