MODEL 1
REMARK VINA RESULT:     -11.2      0.000      0.000
REMARK SMILES O=C(NCc1ccc2cc(CNCC3CC4(CC4)C3)[nH]c2c1)c1cc(=O)n2ccccc2n1
REMARK SMILES IDX 5 1 6 2 7 3 8 4 9 5 10 6 20 7 21 8 22 9 4 15 3 18 1 19 2 20
REMARK SMILES IDX 23 22 24 23 33 24 25 25 32 27 26 28 27 29 31 30 28 31 30 32
REMARK SMILES IDX 29 34 11 38 12 41 13 43 14 46 15 47 19 48 16 50 17 55 18 56
REMARK H PARENT 6 10 7 11 9 12 20 13 22 14 4 16 4 17 3 21 24 26 31 33 28 35
REMARK H PARENT 30 36 29 37 11 39 11 40 12 42 13 44 13 45 14 49 15 51 15 52
REMARK H PARENT 19 53 19 54 17 57 17 58 18 59 18 60
REMARK Flexibility Score: inf
ROOT
ATOM      1  C   UNL     1     -47.622  34.989  26.837  1.00  0.00    -0.027 A 
ATOM      2  C   UNL     1     -46.354  34.776  26.281  1.00  0.00    -0.057 A 
ATOM      3  C   UNL     1     -46.111  33.697  25.421  1.00  0.00    -0.052 A 
ATOM      4  C   UNL     1     -47.162  32.816  25.107  1.00  0.00    -0.000 A 
ATOM      5  C   UNL     1     -47.269  31.656  24.296  1.00  0.00    -0.032 A 
ATOM      6  C   UNL     1     -48.571  31.199  24.366  1.00  0.00     0.030 A 
ATOM      7  N   UNL     1     -49.253  32.054  25.198  1.00  0.00    -0.357 N 
ATOM      8  C   UNL     1     -48.418  33.046  25.662  1.00  0.00     0.046 A 
ATOM      9  C   UNL     1     -48.682  34.120  26.523  1.00  0.00    -0.033 A 
ATOM     10  H   UNL     1     -45.538  35.458  26.514  1.00  0.00     0.063 H 
ATOM     11  H   UNL     1     -45.121  33.547  25.001  1.00  0.00     0.063 H 
ATOM     12  H   UNL     1     -46.480  31.200  23.711  1.00  0.00     0.065 H 
ATOM     13  H   UNL     1     -50.230  31.975  25.439  1.00  0.00     0.166 HD
ATOM     14  H   UNL     1     -49.675  34.274  26.933  1.00  0.00     0.065 H 
ENDROOT
BRANCH   1  15
ATOM     15  C   UNL     1     -47.855  36.176  27.740  1.00  0.00     0.043 C 
ATOM     16  H   UNL     1     -47.885  35.852  28.787  1.00  0.00     0.054 H 
ATOM     17  H   UNL     1     -48.820  36.642  27.517  1.00  0.00     0.054 H 
BRANCH  15  18
ATOM     18  N   UNL     1     -46.840  37.176  27.540  1.00  0.00    -0.347 N 
ATOM     19  O   UNL     1     -48.216  39.012  27.716  1.00  0.00    -0.268 OA
ATOM     20  C   UNL     1     -47.097  38.523  27.617  1.00  0.00     0.270 C 
ATOM     21  H   UNL     1     -45.862  36.907  27.574  1.00  0.00     0.164 HD
BRANCH  20  22
ATOM     22  C   UNL     1     -45.835  39.351  27.580  1.00  0.00     0.136 A 
ATOM     23  C   UNL     1     -45.651  40.104  26.492  1.00  0.00     0.035 A 
ATOM     24  N   UNL     1     -44.968  39.288  28.648  1.00  0.00    -0.225 NA
ATOM     25  C   UNL     1     -44.440  40.930  26.415  1.00  0.00     0.258 A 
ATOM     26  H   UNL     1     -46.340  40.146  25.659  1.00  0.00     0.071 H 
ATOM     27  C   UNL     1     -43.903  40.026  28.578  1.00  0.00     0.140 A 
ATOM     28  O   UNL     1     -44.258  41.622  25.414  1.00  0.00    -0.269 OA
ATOM     29  N   UNL     1     -43.587  40.855  27.507  1.00  0.00    -0.268 N 
ATOM     30  C   UNL     1     -42.938  39.996  29.714  1.00  0.00    -0.019 A 
ATOM     31  C   UNL     1     -42.421  41.614  27.509  1.00  0.00     0.014 A 
ATOM     32  C   UNL     1     -41.830  40.745  29.671  1.00  0.00    -0.057 A 
ATOM     33  H   UNL     1     -43.176  39.356  30.554  1.00  0.00     0.066 H 
ATOM     34  C   UNL     1     -41.559  41.581  28.533  1.00  0.00    -0.045 A 
ATOM     35  H   UNL     1     -42.238  42.239  26.638  1.00  0.00     0.082 H 
ATOM     36  H   UNL     1     -41.116  40.738  30.488  1.00  0.00     0.062 H 
ATOM     37  H   UNL     1     -40.653  42.178  28.523  1.00  0.00     0.064 H 
ENDBRANCH  20  22
ENDBRANCH  15  18
ENDBRANCH   1  15
BRANCH   6  38
ATOM     38  C   UNL     1     -49.227  30.028  23.720  1.00  0.00     0.036 C 
ATOM     39  H   UNL     1     -49.911  30.386  22.941  1.00  0.00     0.049 H 
ATOM     40  H   UNL     1     -48.472  29.394  23.238  1.00  0.00     0.049 H 
BRANCH  38  41
ATOM     41  N   UNL     1     -49.958  29.279  24.732  1.00  0.00    -0.311 NA
ATOM     42  H   UNL     1     -49.611  29.529  25.655  1.00  0.00     0.123 HD
BRANCH  41  43
ATOM     43  C   UNL     1     -49.854  27.837  24.522  1.00  0.00    -0.002 C 
ATOM     44  H   UNL     1     -50.715  27.495  23.936  1.00  0.00     0.043 H 
ATOM     45  H   UNL     1     -48.951  27.603  23.945  1.00  0.00     0.043 H 
BRANCH  43  46
ATOM     46  C   UNL     1     -49.818  27.042  25.835  1.00  0.00    -0.028 C 
ATOM     47  C   UNL     1     -48.583  27.173  26.755  1.00  0.00    -0.043 C 
ATOM     48  C   UNL     1     -49.572  25.518  25.772  1.00  0.00    -0.043 C 
ATOM     49  H   UNL     1     -50.748  27.271  26.376  1.00  0.00     0.032 H 
ATOM     50  C   UNL     1     -48.223  25.806  26.307  1.00  0.00    -0.029 C 
ATOM     51  H   UNL     1     -47.884  27.976  26.507  1.00  0.00     0.028 H 
ATOM     52  H   UNL     1     -48.829  27.239  27.821  1.00  0.00     0.028 H 
ATOM     53  H   UNL     1     -50.206  24.938  26.453  1.00  0.00     0.028 H 
ATOM     54  H   UNL     1     -49.626  25.067  24.776  1.00  0.00     0.028 H 
ATOM     55  C   UNL     1     -47.329  24.848  27.027  1.00  0.00    -0.047 C 
ATOM     56  C   UNL     1     -46.923  25.398  25.686  1.00  0.00    -0.047 C 
ATOM     57  H   UNL     1     -47.624  23.807  27.079  1.00  0.00     0.027 H 
ATOM     58  H   UNL     1     -46.792  25.203  27.899  1.00  0.00     0.027 H 
ATOM     59  H   UNL     1     -46.124  26.129  25.651  1.00  0.00     0.027 H 
ATOM     60  H   UNL     1     -46.945  24.728  24.835  1.00  0.00     0.027 H 
ENDBRANCH  43  46
ENDBRANCH  41  43
ENDBRANCH  38  41
ENDBRANCH   6  38
TORSDOF 7
ENDMDL
MODEL 2
REMARK VINA RESULT:     -10.9      1.859      2.913
REMARK SMILES O=C(NCc1ccc2cc(CNCC3CC4(CC4)C3)[nH]c2c1)c1cc(=O)n2ccccc2n1
REMARK SMILES IDX 5 1 6 2 7 3 8 4 9 5 10 6 20 7 21 8 22 9 4 15 3 18 1 19 2 20
REMARK SMILES IDX 23 22 24 23 33 24 25 25 32 27 26 28 27 29 31 30 28 31 30 32
REMARK SMILES IDX 29 34 11 38 12 41 13 43 14 46 15 47 19 48 16 50 17 55 18 56
REMARK H PARENT 6 10 7 11 9 12 20 13 22 14 4 16 4 17 3 21 24 26 31 33 28 35
REMARK H PARENT 30 36 29 37 11 39 11 40 12 42 13 44 13 45 14 49 15 51 15 52
REMARK H PARENT 19 53 19 54 17 57 17 58 18 59 18 60
REMARK Flexibility Score: inf
ROOT
ATOM      1  C   UNL     1     -46.364  35.931  27.986  1.00  0.00    -0.027 A 
ATOM      2  C   UNL     1     -47.744  35.994  27.751  1.00  0.00    -0.057 A 
ATOM      3  C   UNL     1     -48.368  35.115  26.858  1.00  0.00    -0.052 A 
ATOM      4  C   UNL     1     -47.595  34.148  26.189  1.00  0.00    -0.000 A 
ATOM      5  C   UNL     1     -47.888  33.127  25.247  1.00  0.00    -0.032 A 
ATOM      6  C   UNL     1     -46.710  32.473  24.938  1.00  0.00     0.030 A 
ATOM      7  N   UNL     1     -45.715  33.072  25.671  1.00  0.00    -0.357 N 
ATOM      8  C   UNL     1     -46.226  34.093  26.440  1.00  0.00     0.046 A 
ATOM      9  C   UNL     1     -45.583  34.963  27.331  1.00  0.00    -0.033 A 
ATOM     10  H   UNL     1     -48.350  36.735  28.269  1.00  0.00     0.063 H 
ATOM     11  H   UNL     1     -49.438  35.179  26.686  1.00  0.00     0.063 H 
ATOM     12  H   UNL     1     -48.861  32.885  24.837  1.00  0.00     0.065 H 
ATOM     13  H   UNL     1     -44.741  32.805  25.655  1.00  0.00     0.166 HD
ATOM     14  H   UNL     1     -44.515  34.889  27.509  1.00  0.00     0.065 H 
ENDROOT
BRANCH   1  15
ATOM     15  C   UNL     1     -45.728  36.878  28.974  1.00  0.00     0.043 C 
ATOM     16  H   UNL     1     -45.021  36.338  29.613  1.00  0.00     0.054 H 
ATOM     17  H   UNL     1     -46.490  37.314  29.630  1.00  0.00     0.054 H 
BRANCH  15  18
ATOM     18  N   UNL     1     -45.078  37.967  28.293  1.00  0.00    -0.347 N 
ATOM     19  O   UNL     1     -46.837  39.447  28.382  1.00  0.00    -0.268 OA
ATOM     20  C   UNL     1     -45.668  39.194  28.116  1.00  0.00     0.270 C 
ATOM     21  H   UNL     1     -44.076  37.928  28.136  1.00  0.00     0.164 HD
BRANCH  20  22
ATOM     22  C   UNL     1     -44.707  40.219  27.564  1.00  0.00     0.136 A 
ATOM     23  C   UNL     1     -43.622  40.473  28.301  1.00  0.00     0.035 A 
ATOM     24  N   UNL     1     -44.993  40.814  26.356  1.00  0.00    -0.225 NA
ATOM     25  C   UNL     1     -42.656  41.458  27.801  1.00  0.00     0.258 A 
ATOM     26  H   UNL     1     -43.407  39.996  29.248  1.00  0.00     0.071 H 
ATOM     27  C   UNL     1     -44.132  41.680  25.915  1.00  0.00     0.140 A 
ATOM     28  O   UNL     1     -41.658  41.703  28.476  1.00  0.00    -0.269 OA
ATOM     29  N   UNL     1     -42.964  42.038  26.579  1.00  0.00    -0.268 N 
ATOM     30  C   UNL     1     -44.397  42.347  24.608  1.00  0.00    -0.019 A 
ATOM     31  C   UNL     1     -42.093  42.979  26.037  1.00  0.00     0.014 A 
ATOM     32  C   UNL     1     -43.529  43.244  24.127  1.00  0.00    -0.057 A 
ATOM     33  H   UNL     1     -45.303  42.072  24.082  1.00  0.00     0.066 H 
ATOM     34  C   UNL     1     -42.338  43.574  24.863  1.00  0.00    -0.045 A 
ATOM     35  H   UNL     1     -41.199  43.211  26.611  1.00  0.00     0.082 H 
ATOM     36  H   UNL     1     -43.703  43.740  23.177  1.00  0.00     0.062 H 
ATOM     37  H   UNL     1     -41.651  44.305  24.450  1.00  0.00     0.064 H 
ENDBRANCH  20  22
ENDBRANCH  15  18
ENDBRANCH   1  15
BRANCH   6  38
ATOM     38  C   UNL     1     -46.443  31.336  24.013  1.00  0.00     0.036 C 
ATOM     39  H   UNL     1     -46.000  31.725  23.088  1.00  0.00     0.049 H 
ATOM     40  H   UNL     1     -45.722  30.646  24.465  1.00  0.00     0.049 H 
BRANCH  38  41
ATOM     41  N   UNL     1     -47.698  30.656  23.728  1.00  0.00    -0.311 NA
ATOM     42  H   UNL     1     -48.450  31.340  23.675  1.00  0.00     0.123 HD
BRANCH  41  43
ATOM     43  C   UNL     1     -48.005  29.638  24.729  1.00  0.00    -0.002 C 
ATOM     44  H   UNL     1     -47.293  29.722  25.559  1.00  0.00     0.043 H 
ATOM     45  H   UNL     1     -49.008  29.802  25.140  1.00  0.00     0.043 H 
BRANCH  43  46
ATOM     46  C   UNL     1     -47.929  28.209  24.173  1.00  0.00    -0.028 C 
ATOM     47  C   UNL     1     -48.762  27.098  24.849  1.00  0.00    -0.043 C 
ATOM     48  C   UNL     1     -46.655  27.376  24.442  1.00  0.00    -0.043 C 
ATOM     49  H   UNL     1     -48.141  28.271  23.095  1.00  0.00     0.032 H 
ATOM     50  C   UNL     1     -47.477  26.596  25.394  1.00  0.00    -0.029 C 
ATOM     51  H   UNL     1     -49.509  27.433  25.573  1.00  0.00     0.028 H 
ATOM     52  H   UNL     1     -49.242  26.411  24.143  1.00  0.00     0.028 H 
ATOM     53  H   UNL     1     -46.311  26.799  23.575  1.00  0.00     0.028 H 
ATOM     54  H   UNL     1     -45.804  27.926  24.854  1.00  0.00     0.028 H 
ATOM     55  C   UNL     1     -47.204  25.207  25.874  1.00  0.00    -0.047 C 
ATOM     56  C   UNL     1     -47.166  26.361  26.839  1.00  0.00    -0.047 C 
ATOM     57  H   UNL     1     -46.263  24.743  25.602  1.00  0.00     0.027 H 
ATOM     58  H   UNL     1     -48.036  24.516  25.948  1.00  0.00     0.027 H 
ATOM     59  H   UNL     1     -47.974  26.458  27.556  1.00  0.00     0.027 H 
ATOM     60  H   UNL     1     -46.201  26.675  27.218  1.00  0.00     0.027 H 
ENDBRANCH  43  46
ENDBRANCH  41  43
ENDBRANCH  38  41
ENDBRANCH   6  38
TORSDOF 7
ENDMDL
MODEL 3
REMARK VINA RESULT:     -10.2      3.012     11.958
REMARK SMILES O=C(NCc1ccc2cc(CNCC3CC4(CC4)C3)[nH]c2c1)c1cc(=O)n2ccccc2n1
REMARK SMILES IDX 5 1 6 2 7 3 8 4 9 5 10 6 20 7 21 8 22 9 4 15 3 18 1 19 2 20
REMARK SMILES IDX 23 22 24 23 33 24 25 25 32 27 26 28 27 29 31 30 28 31 30 32
REMARK SMILES IDX 29 34 11 38 12 41 13 43 14 46 15 47 19 48 16 50 17 55 18 56
REMARK H PARENT 6 10 7 11 9 12 20 13 22 14 4 16 4 17 3 21 24 26 31 33 28 35
REMARK H PARENT 30 36 29 37 11 39 11 40 12 42 13 44 13 45 14 49 15 51 15 52
REMARK H PARENT 19 53 19 54 17 57 17 58 18 59 18 60
REMARK Flexibility Score: inf
ROOT
ATOM      1  C   UNL     1     -48.239  33.965  26.199  1.00  0.00    -0.027 A 
ATOM      2  C   UNL     1     -46.909  33.584  25.977  1.00  0.00    -0.057 A 
ATOM      3  C   UNL     1     -45.845  34.310  26.526  1.00  0.00    -0.052 A 
ATOM      4  C   UNL     1     -46.118  35.440  27.320  1.00  0.00    -0.000 A 
ATOM      5  C   UNL     1     -45.311  36.379  28.014  1.00  0.00    -0.032 A 
ATOM      6  C   UNL     1     -46.144  37.288  28.636  1.00  0.00     0.030 A 
ATOM      7  N   UNL     1     -47.434  36.921  28.336  1.00  0.00    -0.357 N 
ATOM      8  C   UNL     1     -47.446  35.800  27.537  1.00  0.00     0.046 A 
ATOM      9  C   UNL     1     -48.524  35.086  26.998  1.00  0.00    -0.033 A 
ATOM     10  H   UNL     1     -46.689  32.707  25.369  1.00  0.00     0.063 H 
ATOM     11  H   UNL     1     -44.820  34.001  26.343  1.00  0.00     0.063 H 
ATOM     12  H   UNL     1     -44.229  36.390  28.064  1.00  0.00     0.065 H 
ATOM     13  H   UNL     1     -48.264  37.401  28.655  1.00  0.00     0.166 HD
ATOM     14  H   UNL     1     -49.548  35.391  27.193  1.00  0.00     0.065 H 
ENDROOT
BRANCH   1  15
ATOM     15  C   UNL     1     -49.361  33.144  25.612  1.00  0.00     0.043 C 
ATOM     16  H   UNL     1     -49.629  33.527  24.621  1.00  0.00     0.054 H 
ATOM     17  H   UNL     1     -50.256  33.216  26.240  1.00  0.00     0.054 H 
BRANCH  15  18
ATOM     18  N   UNL     1     -48.996  31.754  25.545  1.00  0.00    -0.347 N 
ATOM     19  O   UNL     1     -49.251  31.506  23.271  1.00  0.00    -0.268 OA
ATOM     20  C   UNL     1     -48.903  31.065  24.360  1.00  0.00     0.270 C 
ATOM     21  H   UNL     1     -48.568  31.311  26.351  1.00  0.00     0.164 HD
BRANCH  20  22
ATOM     22  C   UNL     1     -48.302  29.692  24.541  1.00  0.00     0.136 A 
ATOM     23  C   UNL     1     -47.226  29.413  23.802  1.00  0.00     0.035 A 
ATOM     24  N   UNL     1     -48.882  28.827  25.442  1.00  0.00    -0.225 NA
ATOM     25  C   UNL     1     -46.604  28.091  23.949  1.00  0.00     0.258 A 
ATOM     26  H   UNL     1     -46.778  30.102  23.098  1.00  0.00     0.071 H 
ATOM     27  C   UNL     1     -48.325  27.662  25.574  1.00  0.00     0.140 A 
ATOM     28  O   UNL     1     -45.616  27.823  23.268  1.00  0.00    -0.269 OA
ATOM     29  N   UNL     1     -47.202  27.242  24.868  1.00  0.00    -0.268 N 
ATOM     30  C   UNL     1     -48.915  26.695  26.542  1.00  0.00    -0.019 A 
ATOM     31  C   UNL     1     -46.667  25.973  25.067  1.00  0.00     0.014 A 
ATOM     32  C   UNL     1     -48.363  25.485  26.700  1.00  0.00    -0.057 A 
ATOM     33  H   UNL     1     -49.787  27.014  27.099  1.00  0.00     0.066 H 
ATOM     34  C   UNL     1     -47.202  25.109  25.938  1.00  0.00    -0.045 A 
ATOM     35  H   UNL     1     -45.789  25.711  24.480  1.00  0.00     0.082 H 
ATOM     36  H   UNL     1     -48.776  24.768  27.400  1.00  0.00     0.062 H 
ATOM     37  H   UNL     1     -46.775  24.122  26.085  1.00  0.00     0.064 H 
ENDBRANCH  20  22
ENDBRANCH  15  18
ENDBRANCH   1  15
BRANCH   6  38
ATOM     38  C   UNL     1     -45.831  38.472  29.485  1.00  0.00     0.036 C 
ATOM     39  H   UNL     1     -46.755  39.033  29.671  1.00  0.00     0.049 H 
ATOM     40  H   UNL     1     -45.437  38.144  30.455  1.00  0.00     0.049 H 
BRANCH  38  41
ATOM     41  N   UNL     1     -44.861  39.306  28.790  1.00  0.00    -0.311 NA
ATOM     42  H   UNL     1     -44.481  39.993  29.437  1.00  0.00     0.123 HD
BRANCH  41  43
ATOM     43  C   UNL     1     -45.448  39.970  27.629  1.00  0.00    -0.002 C 
ATOM     44  H   UNL     1     -46.208  39.316  27.185  1.00  0.00     0.043 H 
ATOM     45  H   UNL     1     -45.951  40.895  27.936  1.00  0.00     0.043 H 
BRANCH  43  46
ATOM     46  C   UNL     1     -44.413  40.308  26.547  1.00  0.00    -0.028 C 
ATOM     47  C   UNL     1     -43.044  40.883  26.975  1.00  0.00    -0.043 C 
ATOM     48  C   UNL     1     -44.635  41.567  25.677  1.00  0.00    -0.043 C 
ATOM     49  H   UNL     1     -44.294  39.411  25.922  1.00  0.00     0.032 H 
ATOM     50  C   UNL     1     -43.528  42.181  26.445  1.00  0.00    -0.029 C 
ATOM     51  H   UNL     1     -42.819  40.838  28.044  1.00  0.00     0.028 H 
ATOM     52  H   UNL     1     -42.195  40.468  26.420  1.00  0.00     0.028 H 
ATOM     53  H   UNL     1     -44.410  41.417  24.615  1.00  0.00     0.028 H 
ATOM     54  H   UNL     1     -45.620  42.037  25.761  1.00  0.00     0.028 H 
ATOM     55  C   UNL     1     -42.677  43.331  26.012  1.00  0.00    -0.047 C 
ATOM     56  C   UNL     1     -43.591  43.471  27.200  1.00  0.00    -0.047 C 
ATOM     57  H   UNL     1     -42.945  43.857  25.103  1.00  0.00     0.027 H 
ATOM     58  H   UNL     1     -41.611  43.280  26.201  1.00  0.00     0.027 H 
ATOM     59  H   UNL     1     -43.147  43.505  28.189  1.00  0.00     0.027 H 
ATOM     60  H   UNL     1     -44.473  44.091  27.092  1.00  0.00     0.027 H 
ENDBRANCH  43  46
ENDBRANCH  41  43
ENDBRANCH  38  41
ENDBRANCH   6  38
TORSDOF 7
ENDMDL
MODEL 4
REMARK VINA RESULT:     -10.1      2.608      4.255
REMARK SMILES O=C(NCc1ccc2cc(CNCC3CC4(CC4)C3)[nH]c2c1)c1cc(=O)n2ccccc2n1
REMARK SMILES IDX 5 1 6 2 7 3 8 4 9 5 10 6 20 7 21 8 22 9 4 15 3 18 1 19 2 20
REMARK SMILES IDX 23 22 24 23 33 24 25 25 32 27 26 28 27 29 31 30 28 31 30 32
REMARK SMILES IDX 29 34 11 38 12 41 13 43 14 46 15 47 19 48 16 50 17 55 18 56
REMARK H PARENT 6 10 7 11 9 12 20 13 22 14 4 16 4 17 3 21 24 26 31 33 28 35
REMARK H PARENT 30 36 29 37 11 39 11 40 12 42 13 44 13 45 14 49 15 51 15 52
REMARK H PARENT 19 53 19 54 17 57 17 58 18 59 18 60
REMARK Flexibility Score: inf
ROOT
ATOM      1  C   UNL     1     -46.403  36.423  28.193  1.00  0.00    -0.027 A 
ATOM      2  C   UNL     1     -47.800  36.393  28.091  1.00  0.00    -0.057 A 
ATOM      3  C   UNL     1     -48.448  35.455  27.278  1.00  0.00    -0.052 A 
ATOM      4  C   UNL     1     -47.680  34.524  26.554  1.00  0.00    -0.000 A 
ATOM      5  C   UNL     1     -47.995  33.465  25.662  1.00  0.00    -0.032 A 
ATOM      6  C   UNL     1     -46.812  32.880  25.252  1.00  0.00     0.030 A 
ATOM      7  N   UNL     1     -45.792  33.558  25.875  1.00  0.00    -0.357 N 
ATOM      8  C   UNL     1     -46.293  34.563  26.672  1.00  0.00     0.046 A 
ATOM      9  C   UNL     1     -45.627  35.492  27.482  1.00  0.00    -0.033 A 
ATOM     10  H   UNL     1     -48.401  37.106  28.653  1.00  0.00     0.063 H 
ATOM     11  H   UNL     1     -49.531  35.447  27.209  1.00  0.00     0.063 H 
ATOM     12  H   UNL     1     -48.984  33.152  25.352  1.00  0.00     0.065 H 
ATOM     13  H   UNL     1     -44.809  33.353  25.769  1.00  0.00     0.166 HD
ATOM     14  H   UNL     1     -44.544  35.490  27.556  1.00  0.00     0.065 H 
ENDROOT
BRANCH   1  15
ATOM     15  C   UNL     1     -45.739  37.432  29.099  1.00  0.00     0.043 C 
ATOM     16  H   UNL     1     -45.057  36.925  29.791  1.00  0.00     0.054 H 
ATOM     17  H   UNL     1     -46.489  37.952  29.704  1.00  0.00     0.054 H 
BRANCH  15  18
ATOM     18  N   UNL     1     -45.043  38.429  28.329  1.00  0.00    -0.347 N 
ATOM     19  O   UNL     1     -46.797  39.905  28.130  1.00  0.00    -0.268 OA
ATOM     20  C   UNL     1     -45.616  39.624  27.967  1.00  0.00     0.270 C 
ATOM     21  H   UNL     1     -44.034  38.374  28.238  1.00  0.00     0.164 HD
BRANCH  20  22
ATOM     22  C   UNL     1     -44.618  40.576  27.352  1.00  0.00     0.136 A 
ATOM     23  C   UNL     1     -43.494  40.785  28.043  1.00  0.00     0.035 A 
ATOM     24  N   UNL     1     -44.914  41.155  26.139  1.00  0.00    -0.225 NA
ATOM     25  C   UNL     1     -42.492  41.698  27.481  1.00  0.00     0.258 A 
ATOM     26  H   UNL     1     -43.272  40.322  28.995  1.00  0.00     0.071 H 
ATOM     27  C   UNL     1     -44.021  41.956  25.643  1.00  0.00     0.140 A 
ATOM     28  O   UNL     1     -41.456  41.902  28.113  1.00  0.00    -0.269 OA
ATOM     29  N   UNL     1     -42.810  42.263  26.254  1.00  0.00    -0.268 N 
ATOM     30  C   UNL     1     -44.295  42.602  24.328  1.00  0.00    -0.019 A 
ATOM     31  C   UNL     1     -41.907  43.135  25.655  1.00  0.00     0.014 A 
ATOM     32  C   UNL     1     -43.395  43.434  23.790  1.00  0.00    -0.057 A 
ATOM     33  H   UNL     1     -45.234  42.368  23.842  1.00  0.00     0.066 H 
ATOM     34  C   UNL     1     -42.161  43.712  24.474  1.00  0.00    -0.045 A 
ATOM     35  H   UNL     1     -40.981  43.330  26.191  1.00  0.00     0.082 H 
ATOM     36  H   UNL     1     -43.575  43.913  22.834  1.00  0.00     0.062 H 
ATOM     37  H   UNL     1     -41.448  44.391  24.016  1.00  0.00     0.064 H 
ENDBRANCH  20  22
ENDBRANCH  15  18
ENDBRANCH   1  15
BRANCH   6  38
ATOM     38  C   UNL     1     -46.560  31.742  24.325  1.00  0.00     0.036 C 
ATOM     39  H   UNL     1     -46.889  32.023  23.317  1.00  0.00     0.049 H 
ATOM     40  H   UNL     1     -45.486  31.525  24.279  1.00  0.00     0.049 H 
BRANCH  38  41
ATOM     41  N   UNL     1     -47.301  30.579  24.794  1.00  0.00    -0.311 NA
ATOM     42  H   UNL     1     -46.658  29.920  25.226  1.00  0.00     0.123 HD
BRANCH  41  43
ATOM     43  C   UNL     1     -48.043  29.935  23.713  1.00  0.00    -0.002 C 
ATOM     44  H   UNL     1     -47.407  29.176  23.241  1.00  0.00     0.043 H 
ATOM     45  H   UNL     1     -48.924  29.420  24.114  1.00  0.00     0.043 H 
BRANCH  43  46
ATOM     46  C   UNL     1     -48.501  30.922  22.630  1.00  0.00    -0.028 C 
ATOM     47  C   UNL     1     -49.975  31.386  22.616  1.00  0.00    -0.043 C 
ATOM     48  C   UNL     1     -48.682  30.404  21.185  1.00  0.00    -0.043 C 
ATOM     49  H   UNL     1     -47.810  31.778  22.660  1.00  0.00     0.032 H 
ATOM     50  C   UNL     1     -50.138  30.520  21.423  1.00  0.00    -0.029 C 
ATOM     51  H   UNL     1     -50.566  31.130  23.499  1.00  0.00     0.028 H 
ATOM     52  H   UNL     1     -50.102  32.454  22.408  1.00  0.00     0.028 H 
ATOM     53  H   UNL     1     -48.301  31.089  20.418  1.00  0.00     0.028 H 
ATOM     54  H   UNL     1     -48.288  29.403  20.984  1.00  0.00     0.028 H 
ATOM     55  C   UNL     1     -51.202  30.644  20.381  1.00  0.00    -0.047 C 
ATOM     56  C   UNL     1     -51.146  29.425  21.263  1.00  0.00    -0.047 C 
ATOM     57  H   UNL     1     -50.921  30.530  19.341  1.00  0.00     0.027 H 
ATOM     58  H   UNL     1     -52.007  31.350  20.551  1.00  0.00     0.027 H 
ATOM     59  H   UNL     1     -51.902  29.312  22.032  1.00  0.00     0.027 H 
ATOM     60  H   UNL     1     -50.828  28.490  20.817  1.00  0.00     0.027 H 
ENDBRANCH  43  46
ENDBRANCH  41  43
ENDBRANCH  38  41
ENDBRANCH   6  38
TORSDOF 7
ENDMDL
MODEL 5
REMARK VINA RESULT:     -10.1      1.853      2.617
REMARK SMILES O=C(NCc1ccc2cc(CNCC3CC4(CC4)C3)[nH]c2c1)c1cc(=O)n2ccccc2n1
REMARK SMILES IDX 5 1 6 2 7 3 8 4 9 5 10 6 20 7 21 8 22 9 4 15 3 18 1 19 2 20
REMARK SMILES IDX 23 22 24 23 33 24 25 25 32 27 26 28 27 29 31 30 28 31 30 32
REMARK SMILES IDX 29 34 11 38 12 41 13 43 14 46 15 47 19 48 16 50 17 55 18 56
REMARK H PARENT 6 10 7 11 9 12 20 13 22 14 4 16 4 17 3 21 24 26 31 33 28 35
REMARK H PARENT 30 36 29 37 11 39 11 40 12 42 13 44 13 45 14 49 15 51 15 52
REMARK H PARENT 19 53 19 54 17 57 17 58 18 59 18 60
REMARK Flexibility Score: inf
ROOT
ATOM      1  C   UNL     1     -46.467  34.430  26.915  1.00  0.00    -0.027 A 
ATOM      2  C   UNL     1     -47.855  34.329  27.072  1.00  0.00    -0.057 A 
ATOM      3  C   UNL     1     -48.621  33.504  26.238  1.00  0.00    -0.052 A 
ATOM      4  C   UNL     1     -47.982  32.762  25.228  1.00  0.00    -0.000 A 
ATOM      5  C   UNL     1     -48.433  31.853  24.234  1.00  0.00    -0.032 A 
ATOM      6  C   UNL     1     -47.335  31.424  23.512  1.00  0.00     0.030 A 
ATOM      7  N   UNL     1     -46.234  32.049  24.046  1.00  0.00    -0.357 N 
ATOM      8  C   UNL     1     -46.600  32.868  25.090  1.00  0.00     0.046 A 
ATOM      9  C   UNL     1     -45.817  33.685  25.916  1.00  0.00    -0.033 A 
ATOM     10  H   UNL     1     -48.356  34.895  27.855  1.00  0.00     0.063 H 
ATOM     11  H   UNL     1     -49.696  33.439  26.373  1.00  0.00     0.063 H 
ATOM     12  H   UNL     1     -49.454  31.535  24.063  1.00  0.00     0.065 H 
ATOM     13  H   UNL     1     -45.285  31.929  23.723  1.00  0.00     0.166 HD
ATOM     14  H   UNL     1     -44.740  33.740  25.785  1.00  0.00     0.065 H 
ENDROOT
BRANCH   1  15
ATOM     15  C   UNL     1     -45.670  35.309  27.847  1.00  0.00     0.043 C 
ATOM     16  H   UNL     1     -44.614  35.014  27.833  1.00  0.00     0.054 H 
ATOM     17  H   UNL     1     -46.025  35.194  28.877  1.00  0.00     0.054 H 
BRANCH  15  18
ATOM     18  N   UNL     1     -45.821  36.697  27.495  1.00  0.00    -0.347 N 
ATOM     19  O   UNL     1     -44.877  37.575  29.401  1.00  0.00    -0.268 OA
ATOM     20  C   UNL     1     -45.343  37.719  28.277  1.00  0.00     0.270 C 
ATOM     21  H   UNL     1     -46.073  36.945  26.544  1.00  0.00     0.164 HD
BRANCH  20  22
ATOM     22  C   UNL     1     -45.440  39.060  27.590  1.00  0.00     0.136 A 
ATOM     23  C   UNL     1     -46.662  39.449  27.217  1.00  0.00     0.035 A 
ATOM     24  N   UNL     1     -44.289  39.792  27.396  1.00  0.00    -0.225 NA
ATOM     25  C   UNL     1     -46.805  40.749  26.551  1.00  0.00     0.258 A 
ATOM     26  H   UNL     1     -47.559  38.866  27.377  1.00  0.00     0.071 H 
ATOM     27  C   UNL     1     -44.422  40.943  26.813  1.00  0.00     0.140 A 
ATOM     28  O   UNL     1     -47.926  41.113  26.198  1.00  0.00    -0.269 OA
ATOM     29  N   UNL     1     -45.633  41.470  26.374  1.00  0.00    -0.268 N 
ATOM     30  C   UNL     1     -43.204  41.773  26.587  1.00  0.00    -0.019 A 
ATOM     31  C   UNL     1     -45.689  42.714  25.754  1.00  0.00     0.014 A 
ATOM     32  C   UNL     1     -43.309  42.965  25.987  1.00  0.00    -0.057 A 
ATOM     33  H   UNL     1     -42.258  41.373  26.927  1.00  0.00     0.066 H 
ATOM     34  C   UNL     1     -44.591  43.453  25.555  1.00  0.00    -0.045 A 
ATOM     35  H   UNL     1     -46.669  43.062  25.437  1.00  0.00     0.082 H 
ATOM     36  H   UNL     1     -42.435  43.585  25.815  1.00  0.00     0.062 H 
ATOM     37  H   UNL     1     -44.647  44.423  25.070  1.00  0.00     0.064 H 
ENDBRANCH  20  22
ENDBRANCH  15  18
ENDBRANCH   1  15
BRANCH   6  38
ATOM     38  C   UNL     1     -47.236  30.479  22.364  1.00  0.00     0.036 C 
ATOM     39  H   UNL     1     -47.792  30.891  21.514  1.00  0.00     0.049 H 
ATOM     40  H   UNL     1     -46.188  30.369  22.059  1.00  0.00     0.049 H 
BRANCH  38  41
ATOM     41  N   UNL     1     -47.794  29.195  22.762  1.00  0.00    -0.311 NA
ATOM     42  H   UNL     1     -48.769  29.317  23.025  1.00  0.00     0.123 HD
BRANCH  41  43
ATOM     43  C   UNL     1     -47.041  28.591  23.857  1.00  0.00    -0.002 C 
ATOM     44  H   UNL     1     -45.970  28.753  23.693  1.00  0.00     0.043 H 
ATOM     45  H   UNL     1     -47.303  29.073  24.808  1.00  0.00     0.043 H 
BRANCH  43  46
ATOM     46  C   UNL     1     -47.285  27.081  23.990  1.00  0.00    -0.028 C 
ATOM     47  C   UNL     1     -48.275  26.573  25.063  1.00  0.00    -0.043 C 
ATOM     48  C   UNL     1     -46.185  26.206  24.635  1.00  0.00    -0.043 C 
ATOM     49  H   UNL     1     -47.551  26.708  22.990  1.00  0.00     0.032 H 
ATOM     50  C   UNL     1     -47.081  26.107  25.809  1.00  0.00    -0.029 C 
ATOM     51  H   UNL     1     -48.892  27.337  25.543  1.00  0.00     0.028 H 
ATOM     52  H   UNL     1     -48.926  25.762  24.718  1.00  0.00     0.028 H 
ATOM     53  H   UNL     1     -46.019  25.252  24.120  1.00  0.00     0.028 H 
ATOM     54  H   UNL     1     -45.217  26.694  24.787  1.00  0.00     0.028 H 
ATOM     55  C   UNL     1     -47.056  25.044  26.859  1.00  0.00    -0.047 C 
ATOM     56  C   UNL     1     -46.728  26.469  27.218  1.00  0.00    -0.047 C 
ATOM     57  H   UNL     1     -46.245  24.326  26.846  1.00  0.00     0.027 H 
ATOM     58  H   UNL     1     -48.001  24.642  27.206  1.00  0.00     0.027 H 
ATOM     59  H   UNL     1     -47.452  27.033  27.796  1.00  0.00     0.027 H 
ATOM     60  H   UNL     1     -45.697  26.710  27.447  1.00  0.00     0.027 H 
ENDBRANCH  43  46
ENDBRANCH  41  43
ENDBRANCH  38  41
ENDBRANCH   6  38
TORSDOF 7
ENDMDL
MODEL 6
REMARK VINA RESULT:      -9.9      2.435      4.476
REMARK SMILES O=C(NCc1ccc2cc(CNCC3CC4(CC4)C3)[nH]c2c1)c1cc(=O)n2ccccc2n1
REMARK SMILES IDX 5 1 6 2 7 3 8 4 9 5 10 6 20 7 21 8 22 9 4 15 3 18 1 19 2 20
REMARK SMILES IDX 23 22 24 23 33 24 25 25 32 27 26 28 27 29 31 30 28 31 30 32
REMARK SMILES IDX 29 34 11 38 12 41 13 43 14 46 15 47 19 48 16 50 17 55 18 56
REMARK H PARENT 6 10 7 11 9 12 20 13 22 14 4 16 4 17 3 21 24 26 31 33 28 35
REMARK H PARENT 30 36 29 37 11 39 11 40 12 42 13 44 13 45 14 49 15 51 15 52
REMARK H PARENT 19 53 19 54 17 57 17 58 18 59 18 60
REMARK Flexibility Score: inf
ROOT
ATOM      1  C   UNL     1     -45.671  37.680  28.410  1.00  0.00    -0.027 A 
ATOM      2  C   UNL     1     -47.006  37.993  28.117  1.00  0.00    -0.057 A 
ATOM      3  C   UNL     1     -47.828  37.092  27.428  1.00  0.00    -0.052 A 
ATOM      4  C   UNL     1     -47.303  35.849  27.027  1.00  0.00    -0.000 A 
ATOM      5  C   UNL     1     -47.835  34.730  26.334  1.00  0.00    -0.032 A 
ATOM      6  C   UNL     1     -46.840  33.777  26.225  1.00  0.00     0.030 A 
ATOM      7  N   UNL     1     -45.722  34.292  26.836  1.00  0.00    -0.357 N 
ATOM      8  C   UNL     1     -45.977  35.551  27.332  1.00  0.00     0.046 A 
ATOM      9  C   UNL     1     -45.140  36.437  28.022  1.00  0.00    -0.033 A 
ATOM     10  H   UNL     1     -47.420  38.949  28.430  1.00  0.00     0.063 H 
ATOM     11  H   UNL     1     -48.859  37.351  27.209  1.00  0.00     0.063 H 
ATOM     12  H   UNL     1     -48.844  34.622  25.956  1.00  0.00     0.065 H 
ATOM     13  H   UNL     1     -44.834  33.819  26.916  1.00  0.00     0.166 HD
ATOM     14  H   UNL     1     -44.113  36.171  28.249  1.00  0.00     0.065 H 
ENDROOT
BRANCH   1  15
ATOM     15  C   UNL     1     -44.822  38.664  29.176  1.00  0.00     0.043 C 
ATOM     16  H   UNL     1     -43.863  38.206  29.443  1.00  0.00     0.054 H 
ATOM     17  H   UNL     1     -45.317  38.949  30.110  1.00  0.00     0.054 H 
BRANCH  15  18
ATOM     18  N   UNL     1     -44.622  39.869  28.413  1.00  0.00    -0.347 N 
ATOM     19  O   UNL     1     -42.588  40.443  29.323  1.00  0.00    -0.268 OA
ATOM     20  C   UNL     1     -43.479  40.624  28.501  1.00  0.00     0.270 C 
ATOM     21  H   UNL     1     -45.221  40.058  27.616  1.00  0.00     0.164 HD
BRANCH  20  22
ATOM     22  C   UNL     1     -43.427  41.710  27.453  1.00  0.00     0.136 A 
ATOM     23  C   UNL     1     -42.235  41.942  26.898  1.00  0.00     0.035 A 
ATOM     24  N   UNL     1     -44.587  42.379  27.132  1.00  0.00    -0.225 NA
ATOM     25  C   UNL     1     -42.138  42.984  25.869  1.00  0.00     0.258 A 
ATOM     26  H   UNL     1     -41.330  41.408  27.157  1.00  0.00     0.071 H 
ATOM     27  C   UNL     1     -44.497  43.295  26.218  1.00  0.00     0.140 A 
ATOM     28  O   UNL     1     -41.042  43.210  25.356  1.00  0.00    -0.269 OA
ATOM     29  N   UNL     1     -43.321  43.639  25.559  1.00  0.00    -0.268 N 
ATOM     30  C   UNL     1     -45.728  44.042  25.833  1.00  0.00    -0.019 A 
ATOM     31  C   UNL     1     -43.309  44.636  24.590  1.00  0.00     0.014 A 
ATOM     32  C   UNL     1     -45.668  44.994  24.893  1.00  0.00    -0.057 A 
ATOM     33  H   UNL     1     -46.649  43.781  26.338  1.00  0.00     0.066 H 
ATOM     34  C   UNL     1     -44.419  45.304  24.250  1.00  0.00    -0.045 A 
ATOM     35  H   UNL     1     -42.354  44.853  24.116  1.00  0.00     0.082 H 
ATOM     36  H   UNL     1     -46.552  45.548  24.599  1.00  0.00     0.062 H 
ATOM     37  H   UNL     1     -44.398  46.080  23.492  1.00  0.00     0.064 H 
ENDBRANCH  20  22
ENDBRANCH  15  18
ENDBRANCH   1  15
BRANCH   6  38
ATOM     38  C   UNL     1     -46.852  32.427  25.595  1.00  0.00     0.036 C 
ATOM     39  H   UNL     1     -46.237  31.747  26.197  1.00  0.00     0.049 H 
ATOM     40  H   UNL     1     -47.873  32.029  25.578  1.00  0.00     0.049 H 
BRANCH  38  41
ATOM     41  N   UNL     1     -46.318  32.532  24.245  1.00  0.00    -0.311 NA
ATOM     42  H   UNL     1     -46.870  33.202  23.714  1.00  0.00     0.123 HD
BRANCH  41  43
ATOM     43  C   UNL     1     -46.295  31.239  23.567  1.00  0.00    -0.002 C 
ATOM     44  H   UNL     1     -45.612  31.292  22.711  1.00  0.00     0.043 H 
ATOM     45  H   UNL     1     -45.912  30.464  24.243  1.00  0.00     0.043 H 
BRANCH  43  46
ATOM     46  C   UNL     1     -47.676  30.807  23.055  1.00  0.00    -0.028 C 
ATOM     47  C   UNL     1     -48.672  30.161  24.045  1.00  0.00    -0.043 C 
ATOM     48  C   UNL     1     -47.777  29.541  22.174  1.00  0.00    -0.043 C 
ATOM     49  H   UNL     1     -48.119  31.677  22.549  1.00  0.00     0.032 H 
ATOM     50  C   UNL     1     -48.386  28.881  23.351  1.00  0.00    -0.029 C 
ATOM     51  H   UNL     1     -48.403  30.222  25.102  1.00  0.00     0.028 H 
ATOM     52  H   UNL     1     -49.704  30.507  23.925  1.00  0.00     0.028 H 
ATOM     53  H   UNL     1     -48.459  29.647  21.322  1.00  0.00     0.028 H 
ATOM     54  H   UNL     1     -46.827  29.135  21.812  1.00  0.00     0.028 H 
ATOM     55  C   UNL     1     -49.260  27.669  23.338  1.00  0.00    -0.047 C 
ATOM     56  C   UNL     1     -47.908  27.619  23.998  1.00  0.00    -0.047 C 
ATOM     57  H   UNL     1     -49.387  27.136  22.404  1.00  0.00     0.027 H 
ATOM     58  H   UNL     1     -50.133  27.659  23.980  1.00  0.00     0.027 H 
ATOM     59  H   UNL     1     -47.865  27.585  25.081  1.00  0.00     0.027 H 
ATOM     60  H   UNL     1     -47.125  27.051  23.508  1.00  0.00     0.027 H 
ENDBRANCH  43  46
ENDBRANCH  41  43
ENDBRANCH  38  41
ENDBRANCH   6  38
TORSDOF 7
ENDMDL
MODEL 7
REMARK VINA RESULT:      -9.8      2.904     12.130
REMARK SMILES O=C(NCc1ccc2cc(CNCC3CC4(CC4)C3)[nH]c2c1)c1cc(=O)n2ccccc2n1
REMARK SMILES IDX 5 1 6 2 7 3 8 4 9 5 10 6 20 7 21 8 22 9 4 15 3 18 1 19 2 20
REMARK SMILES IDX 23 22 24 23 33 24 25 25 32 27 26 28 27 29 31 30 28 31 30 32
REMARK SMILES IDX 29 34 11 38 12 41 13 43 14 46 15 47 19 48 16 50 17 55 18 56
REMARK H PARENT 6 10 7 11 9 12 20 13 22 14 4 16 4 17 3 21 24 26 31 33 28 35
REMARK H PARENT 30 36 29 37 11 39 11 40 12 42 13 44 13 45 14 49 15 51 15 52
REMARK H PARENT 19 53 19 54 17 57 17 58 18 59 18 60
REMARK Flexibility Score: inf
ROOT
ATOM      1  C   UNL     1     -46.385  33.679  25.842  1.00  0.00    -0.027 A 
ATOM      2  C   UNL     1     -46.103  33.207  27.131  1.00  0.00    -0.057 A 
ATOM      3  C   UNL     1     -46.137  34.062  28.240  1.00  0.00    -0.052 A 
ATOM      4  C   UNL     1     -46.463  35.418  28.055  1.00  0.00    -0.000 A 
ATOM      5  C   UNL     1     -46.588  36.532  28.927  1.00  0.00    -0.032 A 
ATOM      6  C   UNL     1     -46.940  37.634  28.172  1.00  0.00     0.030 A 
ATOM      7  N   UNL     1     -47.033  37.213  26.867  1.00  0.00    -0.357 N 
ATOM      8  C   UNL     1     -46.747  35.870  26.769  1.00  0.00     0.046 A 
ATOM      9  C   UNL     1     -46.721  35.030  25.648  1.00  0.00    -0.033 A 
ATOM     10  H   UNL     1     -45.857  32.157  27.283  1.00  0.00     0.063 H 
ATOM     11  H   UNL     1     -45.915  33.679  29.232  1.00  0.00     0.063 H 
ATOM     12  H   UNL     1     -46.444  36.533  30.000  1.00  0.00     0.065 H 
ATOM     13  H   UNL     1     -47.277  37.801  26.083  1.00  0.00     0.166 HD
ATOM     14  H   UNL     1     -46.954  35.414  24.659  1.00  0.00     0.065 H 
ENDROOT
BRANCH   1  15
ATOM     15  C   UNL     1     -46.364  32.725  24.674  1.00  0.00     0.043 C 
ATOM     16  H   UNL     1     -45.341  32.377  24.489  1.00  0.00     0.054 H 
ATOM     17  H   UNL     1     -46.705  33.229  23.763  1.00  0.00     0.054 H 
BRANCH  15  18
ATOM     18  N   UNL     1     -47.250  31.614  24.905  1.00  0.00    -0.347 N 
ATOM     19  O   UNL     1     -48.214  31.584  22.816  1.00  0.00    -0.268 OA
ATOM     20  C   UNL     1     -48.056  31.088  23.926  1.00  0.00     0.270 C 
ATOM     21  H   UNL     1     -47.125  31.042  25.734  1.00  0.00     0.164 HD
BRANCH  20  22
ATOM     22  C   UNL     1     -48.726  29.807  24.361  1.00  0.00     0.136 A 
ATOM     23  C   UNL     1     -50.035  29.708  24.112  1.00  0.00     0.035 A 
ATOM     24  N   UNL     1     -47.966  28.834  24.970  1.00  0.00    -0.225 NA
ATOM     25  C   UNL     1     -50.727  28.477  24.512  1.00  0.00     0.258 A 
ATOM     26  H   UNL     1     -50.621  30.478  23.630  1.00  0.00     0.071 H 
ATOM     27  C   UNL     1     -48.581  27.745  25.316  1.00  0.00     0.140 A 
ATOM     28  O   UNL     1     -51.933  28.378  24.292  1.00  0.00    -0.269 OA
ATOM     29  N   UNL     1     -49.937  27.509  25.117  1.00  0.00    -0.268 N 
ATOM     30  C   UNL     1     -47.797  26.661  25.973  1.00  0.00    -0.019 A 
ATOM     31  C   UNL     1     -50.522  26.313  25.520  1.00  0.00     0.014 A 
ATOM     32  C   UNL     1     -48.404  25.526  26.342  1.00  0.00    -0.057 A 
ATOM     33  H   UNL     1     -46.740  26.834  26.131  1.00  0.00     0.066 H 
ATOM     34  C   UNL     1     -49.811  25.344  26.110  1.00  0.00    -0.045 A 
ATOM     35  H   UNL     1     -51.587  26.197  25.333  1.00  0.00     0.082 H 
ATOM     36  H   UNL     1     -47.851  24.725  26.821  1.00  0.00     0.062 H 
ATOM     37  H   UNL     1     -50.278  24.414  26.420  1.00  0.00     0.064 H 
ENDBRANCH  20  22
ENDBRANCH  15  18
ENDBRANCH   1  15
BRANCH   6  38
ATOM     38  C   UNL     1     -47.195  39.046  28.572  1.00  0.00     0.036 C 
ATOM     39  H   UNL     1     -48.248  39.286  28.382  1.00  0.00     0.049 H 
ATOM     40  H   UNL     1     -47.011  39.171  29.646  1.00  0.00     0.049 H 
BRANCH  38  41
ATOM     41  N   UNL     1     -46.328  39.920  27.796  1.00  0.00    -0.311 NA
ATOM     42  H   UNL     1     -46.468  39.742  26.804  1.00  0.00     0.123 HD
BRANCH  41  43
ATOM     43  C   UNL     1     -44.922  39.746  28.151  1.00  0.00    -0.002 C 
ATOM     44  H   UNL     1     -44.682  40.391  29.005  1.00  0.00     0.043 H 
ATOM     45  H   UNL     1     -44.736  38.710  28.462  1.00  0.00     0.043 H 
BRANCH  43  46
ATOM     46  C   UNL     1     -43.966  40.093  27.002  1.00  0.00    -0.028 C 
ATOM     47  C   UNL     1     -42.857  41.142  27.242  1.00  0.00    -0.043 C 
ATOM     48  C   UNL     1     -44.493  40.962  25.836  1.00  0.00    -0.043 C 
ATOM     49  H   UNL     1     -43.549  39.145  26.631  1.00  0.00     0.032 H 
ATOM     50  C   UNL     1     -43.667  42.054  26.398  1.00  0.00    -0.029 C 
ATOM     51  H   UNL     1     -42.697  41.440  28.281  1.00  0.00     0.028 H 
ATOM     52  H   UNL     1     -41.890  40.874  26.801  1.00  0.00     0.028 H 
ATOM     53  H   UNL     1     -44.166  40.621  24.847  1.00  0.00     0.028 H 
ATOM     54  H   UNL     1     -45.576  41.119  25.811  1.00  0.00     0.028 H 
ATOM     55  C   UNL     1     -43.167  43.257  25.666  1.00  0.00    -0.047 C 
ATOM     56  C   UNL     1     -44.155  43.414  26.791  1.00  0.00    -0.047 C 
ATOM     57  H   UNL     1     -43.519  43.428  24.656  1.00  0.00     0.027 H 
ATOM     58  H   UNL     1     -42.148  43.579  25.843  1.00  0.00     0.027 H 
ATOM     59  H   UNL     1     -43.805  43.829  27.729  1.00  0.00     0.027 H 
ATOM     60  H   UNL     1     -45.172  43.691  26.538  1.00  0.00     0.027 H 
ENDBRANCH  43  46
ENDBRANCH  41  43
ENDBRANCH  38  41
ENDBRANCH   6  38
TORSDOF 7
ENDMDL
