MODEL 1
REMARK VINA RESULT:     -11.0      0.000      0.000
REMARK SMILES Nc1ncnc2c1ccn2[C@@H]1C[C@H](CCc2ccc3ccc(N4CCCC4)nc3c2)[C@@H](O)[C@H]1O
REMARK SMILES IDX 14 1 13 4 11 5 12 6 33 7 31 11 10 15 2 16 3 17 7 18 4 19
REMARK SMILES IDX 6 20 8 21 5 22 9 24 1 27 34 30 32 32 15 34 16 37 17 38 30 39
REMARK SMILES IDX 18 40 29 42 19 44 28 46 20 47 22 48 21 49 23 52 24 53 27 54
REMARK SMILES IDX 25 55 26 58
REMARK H PARENT 14 2 14 3 11 8 12 9 12 10 33 12 13 13 31 14 4 23 8 25 9 26
REMARK H PARENT 1 28 1 29 34 31 32 33 15 35 15 36 17 41 30 43 18 45 20 50
REMARK H PARENT 21 51 24 56 24 57 27 59 27 60 25 61 25 62 26 63 26 64
REMARK Flexibility Score: inf
ROOT
ATOM      1  C   UNL     1     -46.506  35.063  26.454  1.00  0.00    -0.044 C 
ATOM      2  H   UNL     1     -45.621  34.419  26.354  1.00  0.00     0.027 H 
ATOM      3  H   UNL     1     -46.465  35.760  25.606  1.00  0.00     0.027 H 
ENDROOT
BRANCH   1   4
ATOM      4  C   UNL     1     -46.360  35.872  27.755  1.00  0.00    -0.010 C 
ATOM      5  C   UNL     1     -45.813  38.220  28.225  1.00  0.00     0.064 C 
ATOM      6  C   UNL     1     -45.214  36.907  27.703  1.00  0.00    -0.024 C 
ATOM      7  C   UNL     1     -47.293  38.131  27.838  1.00  0.00     0.101 C 
ATOM      8  H   UNL     1     -45.738  38.234  29.322  1.00  0.00     0.056 H 
ATOM      9  H   UNL     1     -44.801  37.009  26.695  1.00  0.00     0.029 H 
ATOM     10  H   UNL     1     -44.379  36.592  28.342  1.00  0.00     0.029 H 
ATOM     11  C   UNL     1     -47.617  36.664  28.150  1.00  0.00     0.085 C 
ATOM     12  H   UNL     1     -47.482  38.340  26.781  1.00  0.00     0.065 H 
ATOM     13  H   UNL     1     -46.122  35.151  28.548  1.00  0.00     0.033 H 
ATOM     14  H   UNL     1     -48.536  36.322  27.667  1.00  0.00     0.063 H 
BRANCH   5  15
ATOM     15  N   UNL     1     -45.131  39.415  27.762  1.00  0.00    -0.327 N 
ATOM     16  C   UNL     1     -42.631  41.907  28.042  1.00  0.00     0.136 A 
ATOM     17  N   UNL     1     -42.005  41.549  29.179  1.00  0.00    -0.219 NA
ATOM     18  C   UNL     1     -43.711  41.135  27.591  1.00  0.00     0.061 A 
ATOM     19  C   UNL     1     -42.441  40.455  29.829  1.00  0.00     0.120 A 
ATOM     20  C   UNL     1     -44.061  40.036  28.363  1.00  0.00     0.145 A 
ATOM     21  C   UNL     1     -44.604  41.167  26.486  1.00  0.00    -0.031 A 
ATOM     22  N   UNL     1     -43.459  39.642  29.498  1.00  0.00    -0.218 NA
ATOM     23  H   UNL     1     -41.904  40.198  30.738  1.00  0.00     0.106 H 
ATOM     24  C   UNL     1     -45.467  40.100  26.616  1.00  0.00     0.007 A 
ATOM     25  H   UNL     1     -44.612  41.888  25.680  1.00  0.00     0.065 H 
ATOM     26  H   UNL     1     -46.288  39.775  25.988  1.00  0.00     0.082 H 
BRANCH  16  27
ATOM     27  N   UNL     1     -42.169  43.040  27.388  1.00  0.00    -0.383 N 
ATOM     28  H   UNL     1     -41.205  42.994  27.090  1.00  0.00     0.158 HD
ATOM     29  H   UNL     1     -42.841  43.352  26.697  1.00  0.00     0.158 HD
ENDBRANCH  16  27
ENDBRANCH   5  15
BRANCH   7  30
ATOM     30  O   UNL     1     -48.123  38.985  28.628  1.00  0.00    -0.388 OA
ATOM     31  H   UNL     1     -49.014  38.589  28.626  1.00  0.00     0.211 HD
ENDBRANCH   7  30
BRANCH  11  32
ATOM     32  O   UNL     1     -47.813  36.529  29.564  1.00  0.00    -0.390 OA
ATOM     33  H   UNL     1     -48.013  37.436  29.876  1.00  0.00     0.211 HD
ENDBRANCH  11  32
ENDBRANCH   1   4
BRANCH   1  34
ATOM     34  C   UNL     1     -47.763  34.194  26.339  1.00  0.00    -0.027 C 
ATOM     35  H   UNL     1     -48.121  33.895  27.331  1.00  0.00     0.032 H 
ATOM     36  H   UNL     1     -48.582  34.753  25.876  1.00  0.00     0.032 H 
BRANCH  34  37
ATOM     37  C   UNL     1     -47.504  32.953  25.522  1.00  0.00    -0.046 A 
ATOM     38  C   UNL     1     -46.521  32.945  24.531  1.00  0.00    -0.058 A 
ATOM     39  C   UNL     1     -48.234  31.776  25.764  1.00  0.00    -0.033 A 
ATOM     40  C   UNL     1     -46.282  31.786  23.795  1.00  0.00    -0.053 A 
ATOM     41  H   UNL     1     -45.933  33.838  24.329  1.00  0.00     0.063 H 
ATOM     42  C   UNL     1     -48.017  30.609  25.044  1.00  0.00     0.073 A 
ATOM     43  H   UNL     1     -48.997  31.763  26.540  1.00  0.00     0.065 H 
ATOM     44  C   UNL     1     -47.027  30.620  24.047  1.00  0.00     0.000 A 
ATOM     45  H   UNL     1     -45.513  31.793  23.027  1.00  0.00     0.063 H 
ATOM     46  N   UNL     1     -48.751  29.516  25.320  1.00  0.00    -0.231 NA
ATOM     47  C   UNL     1     -46.816  29.440  23.336  1.00  0.00    -0.049 A 
ATOM     48  C   UNL     1     -48.556  28.374  24.622  1.00  0.00     0.129 A 
ATOM     49  C   UNL     1     -47.582  28.315  23.630  1.00  0.00    -0.019 A 
ATOM     50  H   UNL     1     -46.057  29.382  22.561  1.00  0.00     0.063 H 
ATOM     51  H   UNL     1     -47.395  27.394  23.089  1.00  0.00     0.066 H 
BRANCH  48  52
ATOM     52  N   UNL     1     -49.318  27.272  24.947  1.00  0.00    -0.357 N 
ATOM     53  C   UNL     1     -50.775  27.303  25.001  1.00  0.00     0.019 C 
ATOM     54  C   UNL     1     -48.770  26.285  25.870  1.00  0.00     0.019 C 
ATOM     55  C   UNL     1     -51.136  26.268  26.068  1.00  0.00    -0.034 C 
ATOM     56  H   UNL     1     -51.186  27.013  24.027  1.00  0.00     0.049 H 
ATOM     57  H   UNL     1     -51.179  28.282  25.281  1.00  0.00     0.049 H 
ATOM     58  C   UNL     1     -49.941  25.330  26.080  1.00  0.00    -0.034 C 
ATOM     59  H   UNL     1     -48.491  26.749  26.825  1.00  0.00     0.049 H 
ATOM     60  H   UNL     1     -47.904  25.761  25.453  1.00  0.00     0.049 H 
ATOM     61  H   UNL     1     -51.234  26.759  27.044  1.00  0.00     0.029 H 
ATOM     62  H   UNL     1     -52.078  25.755  25.851  1.00  0.00     0.029 H 
ATOM     63  H   UNL     1     -50.009  24.623  25.243  1.00  0.00     0.029 H 
ATOM     64  H   UNL     1     -49.856  24.760  27.009  1.00  0.00     0.029 H 
ENDBRANCH  48  52
ENDBRANCH  34  37
ENDBRANCH   1  34
TORSDOF 8
ENDMDL
MODEL 2
REMARK VINA RESULT:     -10.2      1.314      1.983
REMARK SMILES Nc1ncnc2c1ccn2[C@@H]1C[C@H](CCc2ccc3ccc(N4CCCC4)nc3c2)[C@@H](O)[C@H]1O
REMARK SMILES IDX 14 1 13 4 11 5 12 6 33 7 31 11 10 15 2 16 3 17 7 18 4 19
REMARK SMILES IDX 6 20 8 21 5 22 9 24 1 27 34 30 32 32 15 34 16 37 17 38 30 39
REMARK SMILES IDX 18 40 29 42 19 44 28 46 20 47 22 48 21 49 23 52 24 53 27 54
REMARK SMILES IDX 25 55 26 58
REMARK H PARENT 14 2 14 3 11 8 12 9 12 10 33 12 13 13 31 14 4 23 8 25 9 26
REMARK H PARENT 1 28 1 29 34 31 32 33 15 35 15 36 17 41 30 43 18 45 20 50
REMARK H PARENT 21 51 24 56 24 57 27 59 27 60 25 61 25 62 26 63 26 64
REMARK Flexibility Score: inf
ROOT
ATOM      1  C   UNL     1     -47.982  36.868  26.984  1.00  0.00    -0.044 C 
ATOM      2  H   UNL     1     -47.204  36.828  26.208  1.00  0.00     0.027 H 
ATOM      3  H   UNL     1     -48.905  37.161  26.467  1.00  0.00     0.027 H 
ENDROOT
BRANCH   1   4
ATOM      4  C   UNL     1     -47.606  37.983  27.975  1.00  0.00    -0.010 C 
ATOM      5  C   UNL     1     -46.108  39.925  27.837  1.00  0.00     0.064 C 
ATOM      6  C   UNL     1     -46.117  38.392  27.897  1.00  0.00    -0.024 C 
ATOM      7  C   UNL     1     -47.430  40.276  27.144  1.00  0.00     0.101 C 
ATOM      8  H   UNL     1     -46.133  40.321  28.861  1.00  0.00     0.056 H 
ATOM      9  H   UNL     1     -45.614  37.938  27.037  1.00  0.00     0.029 H 
ATOM     10  H   UNL     1     -45.574  38.045  28.784  1.00  0.00     0.029 H 
ATOM     11  C   UNL     1     -48.404  39.284  27.794  1.00  0.00     0.085 C 
ATOM     12  H   UNL     1     -47.410  40.127  26.061  1.00  0.00     0.065 H 
ATOM     13  H   UNL     1     -47.789  37.583  28.982  1.00  0.00     0.033 H 
ATOM     14  H   UNL     1     -49.331  39.170  27.227  1.00  0.00     0.063 H 
BRANCH   5  15
ATOM     15  N   UNL     1     -44.924  40.493  27.217  1.00  0.00    -0.327 N 
ATOM     16  C   UNL     1     -41.564  41.604  27.308  1.00  0.00     0.136 A 
ATOM     17  N   UNL     1     -41.232  41.391  28.596  1.00  0.00    -0.219 NA
ATOM     18  C   UNL     1     -42.857  41.277  26.877  1.00  0.00     0.061 A 
ATOM     19  C   UNL     1     -42.162  40.861  29.412  1.00  0.00     0.120 A 
ATOM     20  C   UNL     1     -43.718  40.744  27.827  1.00  0.00     0.145 A 
ATOM     21  C   UNL     1     -43.578  41.340  25.654  1.00  0.00    -0.031 A 
ATOM     22  N   UNL     1     -43.425  40.510  29.117  1.00  0.00    -0.218 NA
ATOM     23  H   UNL     1     -41.851  40.699  30.441  1.00  0.00     0.106 H 
ATOM     24  C   UNL     1     -44.845  40.854  25.891  1.00  0.00     0.007 A 
ATOM     25  H   UNL     1     -43.208  41.698  24.702  1.00  0.00     0.065 H 
ATOM     26  H   UNL     1     -45.692  40.736  25.225  1.00  0.00     0.082 H 
BRANCH  16  27
ATOM     27  N   UNL     1     -40.593  42.154  26.483  1.00  0.00    -0.383 N 
ATOM     28  H   UNL     1     -39.645  42.041  26.810  1.00  0.00     0.158 HD
ATOM     29  H   UNL     1     -40.768  41.909  25.514  1.00  0.00     0.158 HD
ENDBRANCH  16  27
ENDBRANCH   5  15
BRANCH   7  30
ATOM     30  O   UNL     1     -47.855  41.614  27.413  1.00  0.00    -0.388 OA
ATOM     31  H   UNL     1     -47.083  42.189  27.256  1.00  0.00     0.211 HD
ENDBRANCH   7  30
BRANCH  11  32
ATOM     32  O   UNL     1     -48.765  39.780  29.090  1.00  0.00    -0.390 OA
ATOM     33  H   UNL     1     -49.681  40.113  28.983  1.00  0.00     0.211 HD
ENDBRANCH  11  32
ENDBRANCH   1   4
BRANCH   1  34
ATOM     34  C   UNL     1     -48.154  35.467  27.581  1.00  0.00    -0.027 C 
ATOM     35  H   UNL     1     -47.558  35.357  28.494  1.00  0.00     0.032 H 
ATOM     36  H   UNL     1     -49.194  35.294  27.874  1.00  0.00     0.032 H 
BRANCH  34  37
ATOM     37  C   UNL     1     -47.744  34.394  26.602  1.00  0.00    -0.046 A 
ATOM     38  C   UNL     1     -46.613  34.558  25.800  1.00  0.00    -0.058 A 
ATOM     39  C   UNL     1     -48.482  33.203  26.502  1.00  0.00    -0.033 A 
ATOM     40  C   UNL     1     -46.237  33.552  24.912  1.00  0.00    -0.053 A 
ATOM     41  H   UNL     1     -46.017  35.466  25.863  1.00  0.00     0.063 H 
ATOM     42  C   UNL     1     -48.130  32.185  25.624  1.00  0.00     0.073 A 
ATOM     43  H   UNL     1     -49.360  33.056  27.127  1.00  0.00     0.065 H 
ATOM     44  C   UNL     1     -46.992  32.369  24.821  1.00  0.00     0.000 A 
ATOM     45  H   UNL     1     -45.354  33.691  24.293  1.00  0.00     0.063 H 
ATOM     46  N   UNL     1     -48.878  31.069  25.572  1.00  0.00    -0.231 NA
ATOM     47  C   UNL     1     -46.647  31.337  23.948  1.00  0.00    -0.049 A 
ATOM     48  C   UNL     1     -48.553  30.073  24.717  1.00  0.00     0.129 A 
ATOM     49  C   UNL     1     -47.430  30.186  23.902  1.00  0.00    -0.019 A 
ATOM     50  H   UNL     1     -45.772  31.414  23.310  1.00  0.00     0.063 H 
ATOM     51  H   UNL     1     -47.141  29.379  23.239  1.00  0.00     0.066 H 
BRANCH  48  52
ATOM     52  N   UNL     1     -49.337  28.940  24.705  1.00  0.00    -0.357 N 
ATOM     53  C   UNL     1     -49.181  27.858  25.670  1.00  0.00     0.019 C 
ATOM     54  C   UNL     1     -49.847  28.450  23.430  1.00  0.00     0.019 C 
ATOM     55  C   UNL     1     -49.604  26.603  24.903  1.00  0.00    -0.034 C 
ATOM     56  H   UNL     1     -49.844  28.029  26.526  1.00  0.00     0.049 H 
ATOM     57  H   UNL     1     -48.154  27.743  26.032  1.00  0.00     0.049 H 
ATOM     58  C   UNL     1     -50.522  27.138  23.816  1.00  0.00    -0.034 C 
ATOM     59  H   UNL     1     -49.027  28.255  22.726  1.00  0.00     0.049 H 
ATOM     60  H   UNL     1     -50.562  29.142  22.974  1.00  0.00     0.049 H 
ATOM     61  H   UNL     1     -48.725  26.131  24.449  1.00  0.00     0.029 H 
ATOM     62  H   UNL     1     -50.091  25.864  25.547  1.00  0.00     0.029 H 
ATOM     63  H   UNL     1     -51.520  27.331  24.229  1.00  0.00     0.029 H 
ATOM     64  H   UNL     1     -50.624  26.453  22.970  1.00  0.00     0.029 H 
ENDBRANCH  48  52
ENDBRANCH  34  37
ENDBRANCH   1  34
TORSDOF 8
ENDMDL
MODEL 3
REMARK VINA RESULT:     -10.1      2.038     11.645
REMARK SMILES Nc1ncnc2c1ccn2[C@@H]1C[C@H](CCc2ccc3ccc(N4CCCC4)nc3c2)[C@@H](O)[C@H]1O
REMARK SMILES IDX 14 1 13 4 11 5 12 6 33 7 31 11 10 15 2 16 3 17 7 18 4 19
REMARK SMILES IDX 6 20 8 21 5 22 9 24 1 27 34 30 32 32 15 34 16 37 17 38 30 39
REMARK SMILES IDX 18 40 29 42 19 44 28 46 20 47 22 48 21 49 23 52 24 53 27 54
REMARK SMILES IDX 25 55 26 58
REMARK H PARENT 14 2 14 3 11 8 12 9 12 10 33 12 13 13 31 14 4 23 8 25 9 26
REMARK H PARENT 1 28 1 29 34 31 32 33 15 35 15 36 17 41 30 43 18 45 20 50
REMARK H PARENT 21 51 24 56 24 57 27 59 27 60 25 61 25 62 26 63 26 64
REMARK Flexibility Score: inf
ROOT
ATOM      1  C   UNL     1     -48.393  35.171  26.321  1.00  0.00    -0.044 C 
ATOM      2  H   UNL     1     -49.263  35.030  25.663  1.00  0.00     0.027 H 
ATOM      3  H   UNL     1     -47.622  35.645  25.699  1.00  0.00     0.027 H 
ENDROOT
BRANCH   1   4
ATOM      4  C   UNL     1     -47.888  33.781  26.745  1.00  0.00    -0.010 C 
ATOM      5  C   UNL     1     -47.714  31.625  25.582  1.00  0.00     0.064 C 
ATOM      6  C   UNL     1     -48.726  32.623  26.159  1.00  0.00    -0.024 C 
ATOM      7  C   UNL     1     -46.525  32.501  25.170  1.00  0.00     0.101 C 
ATOM      8  H   UNL     1     -47.388  30.946  26.382  1.00  0.00     0.056 H 
ATOM      9  H   UNL     1     -49.440  32.975  25.407  1.00  0.00     0.029 H 
ATOM     10  H   UNL     1     -49.325  32.143  26.943  1.00  0.00     0.029 H 
ATOM     11  C   UNL     1     -46.434  33.487  26.341  1.00  0.00     0.085 C 
ATOM     12  H   UNL     1     -46.685  33.043  24.234  1.00  0.00     0.065 H 
ATOM     13  H   UNL     1     -47.976  33.736  27.839  1.00  0.00     0.033 H 
ATOM     14  H   UNL     1     -45.844  34.376  26.101  1.00  0.00     0.063 H 
BRANCH   5  15
ATOM     15  N   UNL     1     -48.243  30.777  24.528  1.00  0.00    -0.327 N 
ATOM     16  C   UNL     1     -49.570  27.721  23.332  1.00  0.00     0.136 A 
ATOM     17  N   UNL     1     -49.564  26.958  24.443  1.00  0.00    -0.219 NA
ATOM     18  C   UNL     1     -49.100  29.039  23.412  1.00  0.00     0.061 A 
ATOM     19  C   UNL     1     -49.114  27.505  25.587  1.00  0.00     0.120 A 
ATOM     20  C   UNL     1     -48.658  29.473  24.654  1.00  0.00     0.145 A 
ATOM     21  C   UNL     1     -48.947  30.130  22.514  1.00  0.00    -0.031 A 
ATOM     22  N   UNL     1     -48.642  28.748  25.785  1.00  0.00    -0.218 NA
ATOM     23  H   UNL     1     -49.132  26.858  26.459  1.00  0.00     0.106 H 
ATOM     24  C   UNL     1     -48.416  31.184  23.225  1.00  0.00     0.007 A 
ATOM     25  H   UNL     1     -49.201  30.143  21.462  1.00  0.00     0.065 H 
ATOM     26  H   UNL     1     -48.151  32.187  22.909  1.00  0.00     0.082 H 
BRANCH  16  27
ATOM     27  N   UNL     1     -50.034  27.138  22.161  1.00  0.00    -0.383 N 
ATOM     28  H   UNL     1     -50.628  27.730  21.599  1.00  0.00     0.158 HD
ATOM     29  H   UNL     1     -49.280  26.664  21.676  1.00  0.00     0.158 HD
ENDBRANCH  16  27
ENDBRANCH   5  15
BRANCH   7  30
ATOM     30  O   UNL     1     -45.306  31.763  25.067  1.00  0.00    -0.388 OA
ATOM     31  H   UNL     1     -44.934  31.711  25.967  1.00  0.00     0.211 HD
ENDBRANCH   7  30
BRANCH  11  32
ATOM     32  O   UNL     1     -45.781  32.836  27.439  1.00  0.00    -0.390 OA
ATOM     33  H   UNL     1     -45.381  32.030  27.049  1.00  0.00     0.211 HD
ENDBRANCH  11  32
ENDBRANCH   1   4
BRANCH   1  34
ATOM     34  C   UNL     1     -48.786  36.121  27.458  1.00  0.00    -0.027 C 
ATOM     35  H   UNL     1     -49.454  36.909  27.094  1.00  0.00     0.032 H 
ATOM     36  H   UNL     1     -49.340  35.588  28.236  1.00  0.00     0.032 H 
BRANCH  34  37
ATOM     37  C   UNL     1     -47.574  36.764  28.085  1.00  0.00    -0.046 A 
ATOM     38  C   UNL     1     -46.982  36.209  29.222  1.00  0.00    -0.058 A 
ATOM     39  C   UNL     1     -47.007  37.918  27.518  1.00  0.00    -0.033 A 
ATOM     40  C   UNL     1     -45.853  36.806  29.780  1.00  0.00    -0.053 A 
ATOM     41  H   UNL     1     -47.393  35.310  29.676  1.00  0.00     0.063 H 
ATOM     42  C   UNL     1     -45.884  38.532  28.056  1.00  0.00     0.073 A 
ATOM     43  H   UNL     1     -47.451  38.357  26.626  1.00  0.00     0.065 H 
ATOM     44  C   UNL     1     -45.304  37.964  29.203  1.00  0.00     0.000 A 
ATOM     45  H   UNL     1     -45.402  36.364  30.665  1.00  0.00     0.063 H 
ATOM     46  N   UNL     1     -45.390  39.638  27.470  1.00  0.00    -0.231 NA
ATOM     47  C   UNL     1     -44.174  38.588  29.730  1.00  0.00    -0.049 A 
ATOM     48  C   UNL     1     -44.302  40.252  27.987  1.00  0.00     0.129 A 
ATOM     49  C   UNL     1     -43.672  39.732  29.115  1.00  0.00    -0.019 A 
ATOM     50  H   UNL     1     -43.673  38.190  30.608  1.00  0.00     0.063 H 
ATOM     51  H   UNL     1     -42.778  40.197  29.516  1.00  0.00     0.066 H 
BRANCH  48  52
ATOM     52  N   UNL     1     -43.819  41.372  27.348  1.00  0.00    -0.357 N 
ATOM     53  C   UNL     1     -44.599  42.129  26.375  1.00  0.00     0.019 C 
ATOM     54  C   UNL     1     -42.389  41.466  27.075  1.00  0.00     0.019 C 
ATOM     55  C   UNL     1     -43.554  42.704  25.416  1.00  0.00    -0.034 C 
ATOM     56  H   UNL     1     -45.141  42.935  26.884  1.00  0.00     0.049 H 
ATOM     57  H   UNL     1     -45.315  41.514  25.819  1.00  0.00     0.049 H 
ATOM     58  C   UNL     1     -42.284  42.745  26.249  1.00  0.00    -0.034 C 
ATOM     59  H   UNL     1     -42.044  40.610  26.481  1.00  0.00     0.049 H 
ATOM     60  H   UNL     1     -41.794  41.538  27.991  1.00  0.00     0.049 H 
ATOM     61  H   UNL     1     -43.419  42.026  24.564  1.00  0.00     0.029 H 
ATOM     62  H   UNL     1     -43.840  43.685  25.026  1.00  0.00     0.029 H 
ATOM     63  H   UNL     1     -42.294  43.623  26.907  1.00  0.00     0.029 H 
ATOM     64  H   UNL     1     -41.376  42.778  25.641  1.00  0.00     0.029 H 
ENDBRANCH  48  52
ENDBRANCH  34  37
ENDBRANCH   1  34
TORSDOF 8
ENDMDL
MODEL 4
REMARK VINA RESULT:     -10.1      2.774     11.442
REMARK SMILES Nc1ncnc2c1ccn2[C@@H]1C[C@H](CCc2ccc3ccc(N4CCCC4)nc3c2)[C@@H](O)[C@H]1O
REMARK SMILES IDX 14 1 13 4 11 5 12 6 33 7 31 11 10 15 2 16 3 17 7 18 4 19
REMARK SMILES IDX 6 20 8 21 5 22 9 24 1 27 34 30 32 32 15 34 16 37 17 38 30 39
REMARK SMILES IDX 18 40 29 42 19 44 28 46 20 47 22 48 21 49 23 52 24 53 27 54
REMARK SMILES IDX 25 55 26 58
REMARK H PARENT 14 2 14 3 11 8 12 9 12 10 33 12 13 13 31 14 4 23 8 25 9 26
REMARK H PARENT 1 28 1 29 34 31 32 33 15 35 15 36 17 41 30 43 18 45 20 50
REMARK H PARENT 21 51 24 56 24 57 27 59 27 60 25 61 25 62 26 63 26 64
REMARK Flexibility Score: inf
ROOT
ATOM      1  C   UNL     1     -48.191  35.744  26.614  1.00  0.00    -0.044 C 
ATOM      2  H   UNL     1     -49.081  35.754  25.970  1.00  0.00     0.027 H 
ATOM      3  H   UNL     1     -47.370  36.128  25.996  1.00  0.00     0.027 H 
ENDROOT
BRANCH   1   4
ATOM      4  C   UNL     1     -47.883  34.280  26.976  1.00  0.00    -0.010 C 
ATOM      5  C   UNL     1     -47.851  32.196  25.678  1.00  0.00     0.064 C 
ATOM      6  C   UNL     1     -48.792  33.268  26.244  1.00  0.00    -0.024 C 
ATOM      7  C   UNL     1     -46.541  32.950  25.424  1.00  0.00     0.101 C 
ATOM      8  H   UNL     1     -47.674  31.434  26.450  1.00  0.00     0.056 H 
ATOM      9  H   UNL     1     -49.394  33.748  25.466  1.00  0.00     0.029 H 
ATOM     10  H   UNL     1     -49.506  32.813  26.943  1.00  0.00     0.029 H 
ATOM     11  C   UNL     1     -46.442  33.844  26.667  1.00  0.00     0.085 C 
ATOM     12  H   UNL     1     -46.559  33.565  24.520  1.00  0.00     0.065 H 
ATOM     13  H   UNL     1     -48.069  34.178  28.054  1.00  0.00     0.033 H 
ATOM     14  H   UNL     1     -45.738  34.670  26.538  1.00  0.00     0.063 H 
BRANCH   5  15
ATOM     15  N   UNL     1     -48.379  31.483  24.528  1.00  0.00    -0.327 N 
ATOM     16  C   UNL     1     -48.105  30.182  21.247  1.00  0.00     0.136 A 
ATOM     17  N   UNL     1     -46.863  30.567  20.896  1.00  0.00    -0.219 NA
ATOM     18  C   UNL     1     -48.587  30.525  22.518  1.00  0.00     0.061 A 
ATOM     19  C   UNL     1     -46.134  31.258  21.791  1.00  0.00     0.120 A 
ATOM     20  C   UNL     1     -47.732  31.247  23.339  1.00  0.00     0.145 A 
ATOM     21  C   UNL     1     -49.788  30.319  23.249  1.00  0.00    -0.031 A 
ATOM     22  N   UNL     1     -46.486  31.643  23.030  1.00  0.00    -0.218 NA
ATOM     23  H   UNL     1     -45.136  31.543  21.470  1.00  0.00     0.106 H 
ATOM     24  C   UNL     1     -49.635  30.920  24.480  1.00  0.00     0.007 A 
ATOM     25  H   UNL     1     -50.668  29.786  22.914  1.00  0.00     0.065 H 
ATOM     26  H   UNL     1     -50.314  30.990  25.322  1.00  0.00     0.082 H 
BRANCH  16  27
ATOM     27  N   UNL     1     -48.842  29.473  20.309  1.00  0.00    -0.383 N 
ATOM     28  H   UNL     1     -48.293  28.908  19.678  1.00  0.00     0.158 HD
ATOM     29  H   UNL     1     -49.635  29.019  20.748  1.00  0.00     0.158 HD
ENDBRANCH  16  27
ENDBRANCH   5  15
BRANCH   7  30
ATOM     30  O   UNL     1     -45.408  32.082  25.364  1.00  0.00    -0.388 OA
ATOM     31  H   UNL     1     -44.914  32.209  26.195  1.00  0.00     0.211 HD
ENDBRANCH   7  30
BRANCH  11  32
ATOM     32  O   UNL     1     -45.962  33.053  27.763  1.00  0.00    -0.390 OA
ATOM     33  H   UNL     1     -45.081  32.735  27.473  1.00  0.00     0.211 HD
ENDBRANCH  11  32
ENDBRANCH   1   4
BRANCH   1  34
ATOM     34  C   UNL     1     -48.428  36.693  27.794  1.00  0.00    -0.027 C 
ATOM     35  H   UNL     1     -49.262  37.373  27.586  1.00  0.00     0.032 H 
ATOM     36  H   UNL     1     -48.707  36.135  28.693  1.00  0.00     0.032 H 
BRANCH  34  37
ATOM     37  C   UNL     1     -47.199  37.514  28.099  1.00  0.00    -0.046 A 
ATOM     38  C   UNL     1     -46.439  37.257  29.242  1.00  0.00    -0.058 A 
ATOM     39  C   UNL     1     -46.788  38.533  27.224  1.00  0.00    -0.033 A 
ATOM     40  C   UNL     1     -45.297  38.013  29.502  1.00  0.00    -0.053 A 
ATOM     41  H   UNL     1     -46.727  36.467  29.932  1.00  0.00     0.063 H 
ATOM     42  C   UNL     1     -45.656  39.301  27.461  1.00  0.00     0.073 A 
ATOM     43  H   UNL     1     -47.365  38.739  26.324  1.00  0.00     0.065 H 
ATOM     44  C   UNL     1     -44.905  39.033  28.618  1.00  0.00     0.000 A 
ATOM     45  H   UNL     1     -44.713  37.803  30.395  1.00  0.00     0.063 H 
ATOM     46  N   UNL     1     -45.316  40.266  26.587  1.00  0.00    -0.231 NA
ATOM     47  C   UNL     1     -43.767  39.808  28.841  1.00  0.00    -0.049 A 
ATOM     48  C   UNL     1     -44.221  41.027  26.809  1.00  0.00     0.129 A 
ATOM     49  C   UNL     1     -43.426  40.804  27.930  1.00  0.00    -0.019 A 
ATOM     50  H   UNL     1     -43.139  39.642  29.711  1.00  0.00     0.063 H 
ATOM     51  H   UNL     1     -42.526  41.386  28.098  1.00  0.00     0.066 H 
BRANCH  48  52
ATOM     52  N   UNL     1     -43.899  41.993  25.881  1.00  0.00    -0.357 N 
ATOM     53  C   UNL     1     -42.685  42.798  25.961  1.00  0.00     0.019 C 
ATOM     54  C   UNL     1     -44.976  42.717  25.216  1.00  0.00     0.019 C 
ATOM     55  C   UNL     1     -43.070  44.131  25.317  1.00  0.00    -0.034 C 
ATOM     56  H   UNL     1     -41.883  42.312  25.394  1.00  0.00     0.049 H 
ATOM     57  H   UNL     1     -42.342  42.966  26.989  1.00  0.00     0.049 H 
ATOM     58  C   UNL     1     -44.227  43.767  24.402  1.00  0.00    -0.034 C 
ATOM     59  H   UNL     1     -45.630  43.210  25.947  1.00  0.00     0.049 H 
ATOM     60  H   UNL     1     -45.575  42.070  24.569  1.00  0.00     0.049 H 
ATOM     61  H   UNL     1     -43.412  44.831  26.089  1.00  0.00     0.029 H 
ATOM     62  H   UNL     1     -42.235  44.595  24.785  1.00  0.00     0.029 H 
ATOM     63  H   UNL     1     -43.846  43.326  23.472  1.00  0.00     0.029 H 
ATOM     64  H   UNL     1     -44.854  44.626  24.146  1.00  0.00     0.029 H 
ENDBRANCH  48  52
ENDBRANCH  34  37
ENDBRANCH   1  34
TORSDOF 8
ENDMDL
MODEL 5
REMARK VINA RESULT:     -10.0      2.900     11.927
REMARK SMILES Nc1ncnc2c1ccn2[C@@H]1C[C@H](CCc2ccc3ccc(N4CCCC4)nc3c2)[C@@H](O)[C@H]1O
REMARK SMILES IDX 14 1 13 4 11 5 12 6 33 7 31 11 10 15 2 16 3 17 7 18 4 19
REMARK SMILES IDX 6 20 8 21 5 22 9 24 1 27 34 30 32 32 15 34 16 37 17 38 30 39
REMARK SMILES IDX 18 40 29 42 19 44 28 46 20 47 22 48 21 49 23 52 24 53 27 54
REMARK SMILES IDX 25 55 26 58
REMARK H PARENT 14 2 14 3 11 8 12 9 12 10 33 12 13 13 31 14 4 23 8 25 9 26
REMARK H PARENT 1 28 1 29 34 31 32 33 15 35 15 36 17 41 30 43 18 45 20 50
REMARK H PARENT 21 51 24 56 24 57 27 59 27 60 25 61 25 62 26 63 26 64
REMARK Flexibility Score: inf
ROOT
ATOM      1  C   UNL     1     -48.133  32.608  24.912  1.00  0.00    -0.044 C 
ATOM      2  H   UNL     1     -48.647  31.992  25.663  1.00  0.00     0.027 H 
ATOM      3  H   UNL     1     -48.866  33.356  24.586  1.00  0.00     0.027 H 
ENDROOT
BRANCH   1   4
ATOM      4  C   UNL     1     -47.792  31.707  23.712  1.00  0.00    -0.010 C 
ATOM      5  C   UNL     1     -47.504  29.281  23.455  1.00  0.00     0.064 C 
ATOM      6  C   UNL     1     -46.863  30.528  24.079  1.00  0.00    -0.024 C 
ATOM      7  C   UNL     1     -49.003  29.599  23.451  1.00  0.00     0.101 C 
ATOM      8  H   UNL     1     -47.162  29.189  22.415  1.00  0.00     0.056 H 
ATOM      9  H   UNL     1     -46.733  30.433  25.162  1.00  0.00     0.029 H 
ATOM     10  H   UNL     1     -45.858  30.684  23.666  1.00  0.00     0.029 H 
ATOM     11  C   UNL     1     -49.015  31.074  23.029  1.00  0.00     0.085 C 
ATOM     12  H   UNL     1     -49.477  29.484  24.429  1.00  0.00     0.065 H 
ATOM     13  H   UNL     1     -47.259  32.337  22.987  1.00  0.00     0.033 H 
ATOM     14  H   UNL     1     -49.964  31.570  23.254  1.00  0.00     0.063 H 
BRANCH   5  15
ATOM     15  N   UNL     1     -47.145  28.034  24.106  1.00  0.00    -0.327 N 
ATOM     16  C   UNL     1     -47.820  25.324  26.282  1.00  0.00     0.136 A 
ATOM     17  N   UNL     1     -49.047  25.634  26.744  1.00  0.00    -0.219 NA
ATOM     18  C   UNL     1     -47.200  26.189  25.369  1.00  0.00     0.061 A 
ATOM     19  C   UNL     1     -49.628  26.761  26.296  1.00  0.00     0.120 A 
ATOM     20  C   UNL     1     -47.911  27.321  24.997  1.00  0.00     0.145 A 
ATOM     21  C   UNL     1     -45.965  26.227  24.668  1.00  0.00    -0.031 A 
ATOM     22  N   UNL     1     -49.137  27.663  25.428  1.00  0.00    -0.218 NA
ATOM     23  H   UNL     1     -50.620  26.970  26.688  1.00  0.00     0.106 H 
ATOM     24  C   UNL     1     -45.955  27.371  23.901  1.00  0.00     0.007 A 
ATOM     25  H   UNL     1     -45.170  25.494  24.715  1.00  0.00     0.065 H 
ATOM     26  H   UNL     1     -45.202  27.765  23.227  1.00  0.00     0.082 H 
BRANCH  16  27
ATOM     27  N   UNL     1     -47.235  24.159  26.758  1.00  0.00    -0.383 N 
ATOM     28  H   UNL     1     -47.886  23.458  27.080  1.00  0.00     0.158 HD
ATOM     29  H   UNL     1     -46.506  23.843  26.128  1.00  0.00     0.158 HD
ENDBRANCH  16  27
ENDBRANCH   5  15
BRANCH   7  30
ATOM     30  O   UNL     1     -49.729  28.820  22.497  1.00  0.00    -0.388 OA
ATOM     31  H   UNL     1     -50.563  28.557  22.928  1.00  0.00     0.211 HD
ENDBRANCH   7  30
BRANCH  11  32
ATOM     32  O   UNL     1     -48.832  31.147  21.609  1.00  0.00    -0.390 OA
ATOM     33  H   UNL     1     -48.260  31.932  21.472  1.00  0.00     0.211 HD
ENDBRANCH  11  32
ENDBRANCH   1   4
BRANCH   1  34
ATOM     34  C   UNL     1     -46.948  33.313  25.582  1.00  0.00    -0.027 C 
ATOM     35  H   UNL     1     -46.490  32.669  26.341  1.00  0.00     0.032 H 
ATOM     36  H   UNL     1     -46.161  33.530  24.853  1.00  0.00     0.032 H 
BRANCH  34  37
ATOM     37  C   UNL     1     -47.371  34.606  26.234  1.00  0.00    -0.046 A 
ATOM     38  C   UNL     1     -48.651  34.744  26.774  1.00  0.00    -0.058 A 
ATOM     39  C   UNL     1     -46.472  35.681  26.330  1.00  0.00    -0.033 A 
ATOM     40  C   UNL     1     -49.022  35.940  27.388  1.00  0.00    -0.053 A 
ATOM     41  H   UNL     1     -49.365  33.925  26.723  1.00  0.00     0.063 H 
ATOM     42  C   UNL     1     -46.817  36.883  26.936  1.00  0.00     0.073 A 
ATOM     43  H   UNL     1     -45.467  35.586  25.924  1.00  0.00     0.065 H 
ATOM     44  C   UNL     1     -48.111  37.008  27.469  1.00  0.00     0.000 A 
ATOM     45  H   UNL     1     -50.022  36.035  27.804  1.00  0.00     0.063 H 
ATOM     46  N   UNL     1     -45.914  37.878  26.994  1.00  0.00    -0.231 NA
ATOM     47  C   UNL     1     -48.443  38.217  28.078  1.00  0.00    -0.049 A 
ATOM     48  C   UNL     1     -46.238  39.056  27.572  1.00  0.00     0.129 A 
ATOM     49  C   UNL     1     -47.499  39.240  28.132  1.00  0.00    -0.019 A 
ATOM     50  H   UNL     1     -49.423  38.371  28.519  1.00  0.00     0.063 H 
ATOM     51  H   UNL     1     -47.757  40.169  28.629  1.00  0.00     0.066 H 
BRANCH  48  52
ATOM     52  N   UNL     1     -45.278  40.043  27.625  1.00  0.00    -0.357 N 
ATOM     53  C   UNL     1     -44.996  40.936  26.507  1.00  0.00     0.019 C 
ATOM     54  C   UNL     1     -44.096  39.832  28.452  1.00  0.00     0.019 C 
ATOM     55  C   UNL     1     -43.509  41.268  26.653  1.00  0.00    -0.034 C 
ATOM     56  H   UNL     1     -45.605  41.843  26.596  1.00  0.00     0.049 H 
ATOM     57  H   UNL     1     -45.180  40.478  25.528  1.00  0.00     0.049 H 
ATOM     58  C   UNL     1     -43.236  41.051  28.132  1.00  0.00    -0.034 C 
ATOM     59  H   UNL     1     -43.568  38.916  28.158  1.00  0.00     0.049 H 
ATOM     60  H   UNL     1     -44.336  39.788  29.519  1.00  0.00     0.049 H 
ATOM     61  H   UNL     1     -42.912  40.567  26.058  1.00  0.00     0.029 H 
ATOM     62  H   UNL     1     -43.273  42.283  26.320  1.00  0.00     0.029 H 
ATOM     63  H   UNL     1     -43.579  41.919  28.709  1.00  0.00     0.029 H 
ATOM     64  H   UNL     1     -42.177  40.887  28.350  1.00  0.00     0.029 H 
ENDBRANCH  48  52
ENDBRANCH  34  37
ENDBRANCH   1  34
TORSDOF 8
ENDMDL
MODEL 6
REMARK VINA RESULT:      -9.9      2.099      3.105
REMARK SMILES Nc1ncnc2c1ccn2[C@@H]1C[C@H](CCc2ccc3ccc(N4CCCC4)nc3c2)[C@@H](O)[C@H]1O
REMARK SMILES IDX 14 1 13 4 11 5 12 6 33 7 31 11 10 15 2 16 3 17 7 18 4 19
REMARK SMILES IDX 6 20 8 21 5 22 9 24 1 27 34 30 32 32 15 34 16 37 17 38 30 39
REMARK SMILES IDX 18 40 29 42 19 44 28 46 20 47 22 48 21 49 23 52 24 53 27 54
REMARK SMILES IDX 25 55 26 58
REMARK H PARENT 14 2 14 3 11 8 12 9 12 10 33 12 13 13 31 14 4 23 8 25 9 26
REMARK H PARENT 1 28 1 29 34 31 32 33 15 35 15 36 17 41 30 43 18 45 20 50
REMARK H PARENT 21 51 24 56 24 57 27 59 27 60 25 61 25 62 26 63 26 64
REMARK Flexibility Score: inf
ROOT
ATOM      1  C   UNL     1     -46.457  36.326  28.164  1.00  0.00    -0.044 C 
ATOM      2  H   UNL     1     -47.218  35.677  28.620  1.00  0.00     0.027 H 
ATOM      3  H   UNL     1     -45.495  35.992  28.574  1.00  0.00     0.027 H 
ENDROOT
BRANCH   1   4
ATOM      4  C   UNL     1     -46.714  37.766  28.642  1.00  0.00    -0.010 C 
ATOM      5  C   UNL     1     -45.979  39.965  27.832  1.00  0.00     0.064 C 
ATOM      6  C   UNL     1     -45.477  38.682  28.509  1.00  0.00    -0.024 C 
ATOM      7  C   UNL     1     -47.152  39.493  26.966  1.00  0.00     0.101 C 
ATOM      8  H   UNL     1     -46.364  40.647  28.604  1.00  0.00     0.056 H 
ATOM      9  H   UNL     1     -44.672  38.201  27.945  1.00  0.00     0.029 H 
ATOM     10  H   UNL     1     -45.059  38.914  29.496  1.00  0.00     0.029 H 
ATOM     11  C   UNL     1     -47.847  38.487  27.893  1.00  0.00     0.085 C 
ATOM     12  H   UNL     1     -46.841  38.999  26.042  1.00  0.00     0.065 H 
ATOM     13  H   UNL     1     -46.969  37.703  29.708  1.00  0.00     0.033 H 
ATOM     14  H   UNL     1     -48.529  37.821  27.357  1.00  0.00     0.063 H 
BRANCH   5  15
ATOM     15  N   UNL     1     -44.952  40.707  27.121  1.00  0.00    -0.327 N 
ATOM     16  C   UNL     1     -41.714  42.112  26.853  1.00  0.00     0.136 A 
ATOM     17  N   UNL     1     -41.170  41.790  28.043  1.00  0.00    -0.219 NA
ATOM     18  C   UNL     1     -43.031  41.715  26.580  1.00  0.00     0.061 A 
ATOM     19  C   UNL     1     -41.916  41.089  28.915  1.00  0.00     0.120 A 
ATOM     20  C   UNL     1     -43.689  41.002  27.573  1.00  0.00     0.145 A 
ATOM     21  C   UNL     1     -43.937  41.844  25.494  1.00  0.00    -0.031 A 
ATOM     22  N   UNL     1     -43.180  40.655  28.767  1.00  0.00    -0.218 NA
ATOM     23  H   UNL     1     -41.437  40.845  29.859  1.00  0.00     0.106 H 
ATOM     24  C   UNL     1     -45.111  41.218  25.852  1.00  0.00     0.007 A 
ATOM     25  H   UNL     1     -43.749  42.338  24.549  1.00  0.00     0.065 H 
ATOM     26  H   UNL     1     -46.040  41.095  25.308  1.00  0.00     0.082 H 
BRANCH  16  27
ATOM     27  N   UNL     1     -40.930  42.839  25.969  1.00  0.00    -0.383 N 
ATOM     28  H   UNL     1     -40.421  42.283  25.298  1.00  0.00     0.158 HD
ATOM     29  H   UNL     1     -41.448  43.629  25.600  1.00  0.00     0.158 HD
ENDBRANCH  16  27
ENDBRANCH   5  15
BRANCH   7  30
ATOM     30  O   UNL     1     -48.055  40.550  26.638  1.00  0.00    -0.388 OA
ATOM     31  H   UNL     1     -47.779  40.894  25.768  1.00  0.00     0.211 HD
ENDBRANCH   7  30
BRANCH  11  32
ATOM     32  O   UNL     1     -48.634  39.211  28.847  1.00  0.00    -0.390 OA
ATOM     33  H   UNL     1     -49.560  39.090  28.550  1.00  0.00     0.211 HD
ENDBRANCH  11  32
ENDBRANCH   1   4
BRANCH   1  34
ATOM     34  C   UNL     1     -46.468  36.108  26.648  1.00  0.00    -0.027 C 
ATOM     35  H   UNL     1     -46.928  36.961  26.135  1.00  0.00     0.032 H 
ATOM     36  H   UNL     1     -45.448  36.032  26.257  1.00  0.00     0.032 H 
BRANCH  34  37
ATOM     37  C   UNL     1     -47.221  34.855  26.274  1.00  0.00    -0.046 A 
ATOM     38  C   UNL     1     -48.557  34.691  26.644  1.00  0.00    -0.058 A 
ATOM     39  C   UNL     1     -46.594  33.844  25.526  1.00  0.00    -0.033 A 
ATOM     40  C   UNL     1     -49.245  33.535  26.278  1.00  0.00    -0.053 A 
ATOM     41  H   UNL     1     -49.072  35.462  27.215  1.00  0.00     0.063 H 
ATOM     42  C   UNL     1     -47.256  32.682  25.150  1.00  0.00     0.073 A 
ATOM     43  H   UNL     1     -45.555  33.961  25.222  1.00  0.00     0.065 H 
ATOM     44  C   UNL     1     -48.598  32.531  25.535  1.00  0.00     0.000 A 
ATOM     45  H   UNL     1     -50.285  33.420  26.572  1.00  0.00     0.063 H 
ATOM     46  N   UNL     1     -46.600  31.749  24.437  1.00  0.00    -0.231 NA
ATOM     47  C   UNL     1     -49.252  31.363  25.147  1.00  0.00    -0.049 A 
ATOM     48  C   UNL     1     -47.228  30.609  24.071  1.00  0.00     0.129 A 
ATOM     49  C   UNL     1     -48.563  30.403  24.409  1.00  0.00    -0.019 A 
ATOM     50  H   UNL     1     -50.294  31.193  25.403  1.00  0.00     0.063 H 
ATOM     51  H   UNL     1     -49.086  29.508  24.090  1.00  0.00     0.066 H 
BRANCH  48  52
ATOM     52  N   UNL     1     -46.525  29.686  23.328  1.00  0.00    -0.357 N 
ATOM     53  C   UNL     1     -46.553  28.255  23.608  1.00  0.00     0.019 C 
ATOM     54  C   UNL     1     -45.262  30.087  22.719  1.00  0.00     0.019 C 
ATOM     55  C   UNL     1     -45.178  27.755  23.159  1.00  0.00    -0.034 C 
ATOM     56  H   UNL     1     -47.348  27.780  23.022  1.00  0.00     0.049 H 
ATOM     57  H   UNL     1     -46.704  28.023  24.668  1.00  0.00     0.049 H 
ATOM     58  C   UNL     1     -44.741  28.781  22.128  1.00  0.00    -0.034 C 
ATOM     59  H   UNL     1     -44.560  30.460  23.476  1.00  0.00     0.049 H 
ATOM     60  H   UNL     1     -45.397  30.846  21.942  1.00  0.00     0.049 H 
ATOM     61  H   UNL     1     -44.484  27.761  24.008  1.00  0.00     0.029 H 
ATOM     62  H   UNL     1     -45.214  26.737  22.759  1.00  0.00     0.029 H 
ATOM     63  H   UNL     1     -45.229  28.579  21.166  1.00  0.00     0.029 H 
ATOM     64  H   UNL     1     -43.659  28.794  21.971  1.00  0.00     0.029 H 
ENDBRANCH  48  52
ENDBRANCH  34  37
ENDBRANCH   1  34
TORSDOF 8
ENDMDL
MODEL 7
REMARK VINA RESULT:      -9.8      2.851     11.897
REMARK SMILES Nc1ncnc2c1ccn2[C@@H]1C[C@H](CCc2ccc3ccc(N4CCCC4)nc3c2)[C@@H](O)[C@H]1O
REMARK SMILES IDX 14 1 13 4 11 5 12 6 33 7 31 11 10 15 2 16 3 17 7 18 4 19
REMARK SMILES IDX 6 20 8 21 5 22 9 24 1 27 34 30 32 32 15 34 16 37 17 38 30 39
REMARK SMILES IDX 18 40 29 42 19 44 28 46 20 47 22 48 21 49 23 52 24 53 27 54
REMARK SMILES IDX 25 55 26 58
REMARK H PARENT 14 2 14 3 11 8 12 9 12 10 33 12 13 13 31 14 4 23 8 25 9 26
REMARK H PARENT 1 28 1 29 34 31 32 33 15 35 15 36 17 41 30 43 18 45 20 50
REMARK H PARENT 21 51 24 56 24 57 27 59 27 60 25 61 25 62 26 63 26 64
REMARK Flexibility Score: inf
ROOT
ATOM      1  C   UNL     1     -46.535  37.493  26.710  1.00  0.00    -0.044 C 
ATOM      2  H   UNL     1     -46.878  37.573  25.669  1.00  0.00     0.027 H 
ATOM      3  H   UNL     1     -45.454  37.312  26.656  1.00  0.00     0.027 H 
ENDROOT
BRANCH   1   4
ATOM      4  C   UNL     1     -47.204  36.257  27.337  1.00  0.00    -0.010 C 
ATOM      5  C   UNL     1     -47.266  33.881  26.720  1.00  0.00     0.064 C 
ATOM      6  C   UNL     1     -47.761  35.268  26.289  1.00  0.00    -0.024 C 
ATOM      7  C   UNL     1     -45.940  34.166  27.435  1.00  0.00     0.101 C 
ATOM      8  H   UNL     1     -47.974  33.462  27.449  1.00  0.00     0.056 H 
ATOM      9  H   UNL     1     -47.443  35.527  25.274  1.00  0.00     0.029 H 
ATOM     10  H   UNL     1     -48.858  35.292  26.278  1.00  0.00     0.029 H 
ATOM     11  C   UNL     1     -46.278  35.428  28.240  1.00  0.00     0.085 C 
ATOM     12  H   UNL     1     -45.111  34.368  26.752  1.00  0.00     0.065 H 
ATOM     13  H   UNL     1     -48.052  36.626  27.930  1.00  0.00     0.033 H 
ATOM     14  H   UNL     1     -45.387  35.961  28.583  1.00  0.00     0.063 H 
BRANCH   5  15
ATOM     15  N   UNL     1     -47.183  32.913  25.641  1.00  0.00    -0.327 N 
ATOM     16  C   UNL     1     -48.643  30.727  23.270  1.00  0.00     0.136 A 
ATOM     17  N   UNL     1     -49.958  30.878  23.521  1.00  0.00    -0.219 NA
ATOM     18  C   UNL     1     -47.719  31.454  24.033  1.00  0.00     0.061 A 
ATOM     19  C   UNL     1     -50.325  31.733  24.493  1.00  0.00     0.120 A 
ATOM     20  C   UNL     1     -48.236  32.295  25.009  1.00  0.00     0.145 A 
ATOM     21  C   UNL     1     -46.305  31.580  24.084  1.00  0.00    -0.031 A 
ATOM     22  N   UNL     1     -49.537  32.479  25.286  1.00  0.00    -0.218 NA
ATOM     23  H   UNL     1     -51.395  31.829  24.659  1.00  0.00     0.106 H 
ATOM     24  C   UNL     1     -46.002  32.481  25.082  1.00  0.00     0.007 A 
ATOM     25  H   UNL     1     -45.586  31.071  23.456  1.00  0.00     0.065 H 
ATOM     26  H   UNL     1     -45.045  32.848  25.436  1.00  0.00     0.082 H 
BRANCH  16  27
ATOM     27  N   UNL     1     -48.284  29.838  22.267  1.00  0.00    -0.383 N 
ATOM     28  H   UNL     1     -49.028  29.232  21.950  1.00  0.00     0.158 HD
ATOM     29  H   UNL     1     -47.750  30.310  21.546  1.00  0.00     0.158 HD
ENDBRANCH  16  27
ENDBRANCH   5  15
BRANCH   7  30
ATOM     30  O   UNL     1     -45.556  33.116  28.323  1.00  0.00    -0.388 OA
ATOM     31  H   UNL     1     -45.726  32.277  27.855  1.00  0.00     0.211 HD
ENDBRANCH   7  30
BRANCH  11  32
ATOM     32  O   UNL     1     -47.011  35.041  29.411  1.00  0.00    -0.390 OA
ATOM     33  H   UNL     1     -47.933  35.318  29.229  1.00  0.00     0.211 HD
ENDBRANCH  11  32
ENDBRANCH   1   4
BRANCH   1  34
ATOM     34  C   UNL     1     -46.793  38.829  27.416  1.00  0.00    -0.027 C 
ATOM     35  H   UNL     1     -47.654  39.344  26.974  1.00  0.00     0.032 H 
ATOM     36  H   UNL     1     -47.043  38.670  28.470  1.00  0.00     0.032 H 
BRANCH  34  37
ATOM     37  C   UNL     1     -45.592  39.737  27.338  1.00  0.00    -0.046 A 
ATOM     38  C   UNL     1     -44.581  39.665  28.299  1.00  0.00    -0.058 A 
ATOM     39  C   UNL     1     -45.459  40.653  26.280  1.00  0.00    -0.033 A 
ATOM     40  C   UNL     1     -43.469  40.500  28.205  1.00  0.00    -0.053 A 
ATOM     41  H   UNL     1     -44.652  38.958  29.123  1.00  0.00     0.063 H 
ATOM     42  C   UNL     1     -44.362  41.496  26.164  1.00  0.00     0.073 A 
ATOM     43  H   UNL     1     -46.233  40.714  25.517  1.00  0.00     0.065 H 
ATOM     44  C   UNL     1     -43.358  41.415  27.142  1.00  0.00     0.000 A 
ATOM     45  H   UNL     1     -42.689  40.434  28.959  1.00  0.00     0.063 H 
ATOM     46  N   UNL     1     -44.295  42.355  25.130  1.00  0.00    -0.231 NA
ATOM     47  C   UNL     1     -42.259  42.263  27.011  1.00  0.00    -0.049 A 
ATOM     48  C   UNL     1     -43.237  43.188  25.008  1.00  0.00     0.129 A 
ATOM     49  C   UNL     1     -42.200  43.148  25.937  1.00  0.00    -0.019 A 
ATOM     50  H   UNL     1     -41.444  42.239  27.728  1.00  0.00     0.063 H 
ATOM     51  H   UNL     1     -41.331  43.788  25.828  1.00  0.00     0.066 H 
BRANCH  48  52
ATOM     52  N   UNL     1     -43.199  44.040  23.926  1.00  0.00    -0.357 N 
ATOM     53  C   UNL     1     -44.379  44.730  23.417  1.00  0.00     0.019 C 
ATOM     54  C   UNL     1     -42.228  43.791  22.867  1.00  0.00     0.019 C 
ATOM     55  C   UNL     1     -44.111  44.883  21.918  1.00  0.00    -0.034 C 
ATOM     56  H   UNL     1     -44.467  45.712  23.896  1.00  0.00     0.049 H 
ATOM     57  H   UNL     1     -45.309  44.173  23.574  1.00  0.00     0.049 H 
ATOM     58  C   UNL     1     -42.596  44.834  21.816  1.00  0.00    -0.034 C 
ATOM     59  H   UNL     1     -42.349  42.783  22.450  1.00  0.00     0.049 H 
ATOM     60  H   UNL     1     -41.196  43.922  23.208  1.00  0.00     0.049 H 
ATOM     61  H   UNL     1     -44.549  44.037  21.375  1.00  0.00     0.029 H 
ATOM     62  H   UNL     1     -44.536  45.804  21.510  1.00  0.00     0.029 H 
ATOM     63  H   UNL     1     -42.169  45.809  22.083  1.00  0.00     0.029 H 
ATOM     64  H   UNL     1     -42.245  44.564  20.816  1.00  0.00     0.029 H 
ENDBRANCH  48  52
ENDBRANCH  34  37
ENDBRANCH   1  34
TORSDOF 8
ENDMDL
