MODEL 1
REMARK VINA RESULT:     -11.5      0.000      0.000
REMARK SMILES Cn1ccc(-c2cn([C@@H]3O[C@H](COc4ccc5ccc(N6CC(N)C6)nc5c4)[C@@H](O)[C@@H]3F)c3ncnc(N)c23)n1
REMARK SMILES IDX 12 1 11 4 9 5 10 6 31 7 29 9 32 10 8 14 6 15 7 16 39 17
REMARK SMILES IDX 33 19 37 20 34 21 36 22 35 23 5 25 2 26 3 27 40 28 4 29 1 32
REMARK SMILES IDX 38 36 30 39 13 41 14 42 15 43 28 44 16 45 27 47 17 49 26 51
REMARK SMILES IDX 18 52 20 53 19 54 21 57 22 58 25 59 23 60 24 66
REMARK H PARENT 12 2 12 3 9 8 31 11 11 12 29 13 7 18 35 24 3 30 4 31 1 33 1 34
REMARK H PARENT 1 35 38 37 38 38 30 40 15 46 28 48 16 50 18 55 19 56 22 61
REMARK H PARENT 22 62 25 63 25 64 23 65 24 67 24 68
REMARK Flexibility Score: inf
ROOT
ATOM      1  C   UNL     1     -47.076  36.316  27.067  1.00  0.00     0.117 C 
ATOM      2  H   UNL     1     -46.528  36.254  26.120  1.00  0.00     0.073 H 
ATOM      3  H   UNL     1     -47.516  37.318  27.103  1.00  0.00     0.073 H 
ENDROOT
BRANCH   1   4
ATOM      4  C   UNL     1     -46.122  36.036  28.243  1.00  0.00     0.123 C 
ATOM      5  C   UNL     1     -44.967  37.903  29.065  1.00  0.00     0.169 C 
ATOM      6  O   UNL     1     -44.929  36.841  28.079  1.00  0.00    -0.345 OA
ATOM      7  C   UNL     1     -46.353  37.890  29.698  1.00  0.00     0.173 C 
ATOM      8  H   UNL     1     -44.192  37.659  29.803  1.00  0.00     0.088 H 
ATOM      9  C   UNL     1     -46.724  36.430  29.594  1.00  0.00     0.119 C 
ATOM     10  F   UNL     1     -47.247  38.602  28.954  1.00  0.00    -0.239 F 
ATOM     11  H   UNL     1     -46.357  38.288  30.717  1.00  0.00     0.074 H 
ATOM     12  H   UNL     1     -45.793  34.993  28.242  1.00  0.00     0.067 H 
ATOM     13  H   UNL     1     -47.802  36.257  29.646  1.00  0.00     0.066 H 
BRANCH   5  14
ATOM     14  N   UNL     1     -44.607  39.173  28.460  1.00  0.00    -0.302 N 
ATOM     15  C   UNL     1     -44.559  40.986  27.169  1.00  0.00     0.033 A 
ATOM     16  C   UNL     1     -45.197  39.779  27.381  1.00  0.00     0.019 A 
ATOM     17  C   UNL     1     -43.500  41.096  28.118  1.00  0.00     0.071 A 
ATOM     18  H   UNL     1     -46.029  39.322  26.858  1.00  0.00     0.083 H 
ATOM     19  C   UNL     1     -43.578  39.960  28.918  1.00  0.00     0.148 A 
ATOM     20  C   UNL     1     -42.459  41.991  28.419  1.00  0.00     0.137 A 
ATOM     21  N   UNL     1     -42.790  39.656  29.964  1.00  0.00    -0.218 NA
ATOM     22  N   UNL     1     -41.647  41.723  29.463  1.00  0.00    -0.219 NA
ATOM     23  C   UNL     1     -41.857  40.598  30.168  1.00  0.00     0.120 A 
ATOM     24  H   UNL     1     -41.184  40.430  31.003  1.00  0.00     0.106 H 
BRANCH  15  25
ATOM     25  C   UNL     1     -44.917  41.960  26.142  1.00  0.00     0.095 A 
ATOM     26  N   UNL     1     -45.892  43.546  25.148  1.00  0.00    -0.275 N 
ATOM     27  C   UNL     1     -44.884  43.186  24.305  1.00  0.00     0.025 A 
ATOM     28  N   UNL     1     -45.935  42.816  26.277  1.00  0.00    -0.173 NA
ATOM     29  C   UNL     1     -44.218  42.158  24.932  1.00  0.00    -0.016 A 
ATOM     30  H   UNL     1     -44.716  43.685  23.360  1.00  0.00     0.084 H 
ATOM     31  H   UNL     1     -43.346  41.630  24.570  1.00  0.00     0.066 H 
BRANCH  26  32
ATOM     32  C   UNL     1     -46.861  44.596  24.947  1.00  0.00     0.030 C 
ATOM     33  H   UNL     1     -47.031  44.709  23.874  1.00  0.00     0.048 H 
ATOM     34  H   UNL     1     -47.795  44.329  25.448  1.00  0.00     0.048 H 
ATOM     35  H   UNL     1     -46.461  45.520  25.373  1.00  0.00     0.048 H 
ENDBRANCH  26  32
ENDBRANCH  15  25
BRANCH  20  36
ATOM     36  N   UNL     1     -42.163  43.136  27.691  1.00  0.00    -0.383 N 
ATOM     37  H   UNL     1     -42.588  43.976  28.068  1.00  0.00     0.158 HD
ATOM     38  H   UNL     1     -42.339  42.969  26.706  1.00  0.00     0.158 HD
ENDBRANCH  20  36
ENDBRANCH   5  14
BRANCH   9  39
ATOM     39  O   UNL     1     -46.107  35.710  30.665  1.00  0.00    -0.387 OA
ATOM     40  H   UNL     1     -45.240  36.118  30.846  1.00  0.00     0.211 HD
ENDBRANCH   9  39
ENDBRANCH   1   4
BRANCH   1  41
ATOM     41  O   UNL     1     -48.095  35.311  26.978  1.00  0.00    -0.491 OA
BRANCH  41  42
ATOM     42  C   UNL     1     -47.852  34.186  26.240  1.00  0.00     0.121 A 
ATOM     43  C   UNL     1     -46.667  34.223  25.508  1.00  0.00    -0.019 A 
ATOM     44  C   UNL     1     -48.662  33.052  26.170  1.00  0.00     0.007 A 
ATOM     45  C   UNL     1     -46.291  33.135  24.723  1.00  0.00    -0.049 A 
ATOM     46  H   UNL     1     -46.030  35.103  25.557  1.00  0.00     0.066 H 
ATOM     47  C   UNL     1     -48.311  31.951  25.398  1.00  0.00     0.076 A 
ATOM     48  H   UNL     1     -49.596  32.980  26.715  1.00  0.00     0.069 H 
ATOM     49  C   UNL     1     -47.109  31.997  24.666  1.00  0.00     0.001 A 
ATOM     50  H   UNL     1     -45.361  33.181  24.162  1.00  0.00     0.063 H 
ATOM     51  N   UNL     1     -49.127  30.882  25.377  1.00  0.00    -0.231 NA
ATOM     52  C   UNL     1     -46.769  30.880  23.900  1.00  0.00    -0.049 A 
ATOM     53  C   UNL     1     -48.794  29.807  24.626  1.00  0.00     0.129 A 
ATOM     54  C   UNL     1     -47.618  29.777  23.884  1.00  0.00    -0.019 A 
ATOM     55  H   UNL     1     -45.850  30.857  23.321  1.00  0.00     0.063 H 
ATOM     56  H   UNL     1     -47.352  28.902  23.301  1.00  0.00     0.066 H 
BRANCH  53  57
ATOM     57  N   UNL     1     -49.654  28.695  24.627  1.00  0.00    -0.353 N 
ATOM     58  C   UNL     1     -49.307  27.344  24.274  1.00  0.00     0.036 C 
ATOM     59  C   UNL     1     -50.906  28.635  23.919  1.00  0.00     0.036 C 
ATOM     60  C   UNL     1     -50.814  27.104  24.062  1.00  0.00     0.040 C 
ATOM     61  H   UNL     1     -48.856  26.789  25.101  1.00  0.00     0.051 H 
ATOM     62  H   UNL     1     -48.665  27.295  23.387  1.00  0.00     0.051 H 
ATOM     63  H   UNL     1     -51.725  29.111  24.465  1.00  0.00     0.051 H 
ATOM     64  H   UNL     1     -50.834  29.043  22.904  1.00  0.00     0.051 H 
ATOM     65  H   UNL     1     -51.344  26.675  24.918  1.00  0.00     0.050 H 
BRANCH  60  66
ATOM     66  N   UNL     1     -51.052  26.440  22.773  1.00  0.00    -0.325 NA
ATOM     67  H   UNL     1     -51.671  25.630  22.826  1.00  0.00     0.119 HD
ATOM     68  H   UNL     1     -50.198  26.105  22.328  1.00  0.00     0.119 HD
ENDBRANCH  60  66
ENDBRANCH  53  57
ENDBRANCH  41  42
ENDBRANCH   1  41
TORSDOF 10
ENDMDL
MODEL 2
REMARK VINA RESULT:     -10.2      2.303      3.060
REMARK SMILES Cn1ccc(-c2cn([C@@H]3O[C@H](COc4ccc5ccc(N6CC(N)C6)nc5c4)[C@@H](O)[C@@H]3F)c3ncnc(N)c23)n1
REMARK SMILES IDX 12 1 11 4 9 5 10 6 31 7 29 9 32 10 8 14 6 15 7 16 39 17
REMARK SMILES IDX 33 19 37 20 34 21 36 22 35 23 5 25 2 26 3 27 40 28 4 29 1 32
REMARK SMILES IDX 38 36 30 39 13 41 14 42 15 43 28 44 16 45 27 47 17 49 26 51
REMARK SMILES IDX 18 52 20 53 19 54 21 57 22 58 25 59 23 60 24 66
REMARK H PARENT 12 2 12 3 9 8 31 11 11 12 29 13 7 18 35 24 3 30 4 31 1 33 1 34
REMARK H PARENT 1 35 38 37 38 38 30 40 15 46 28 48 16 50 18 55 19 56 22 61
REMARK H PARENT 22 62 25 63 25 64 23 65 24 67 24 68
REMARK Flexibility Score: inf
ROOT
ATOM      1  C   UNL     1     -46.790  35.350  26.195  1.00  0.00     0.117 C 
ATOM      2  H   UNL     1     -46.093  34.948  25.451  1.00  0.00     0.073 H 
ATOM      3  H   UNL     1     -47.209  36.264  25.762  1.00  0.00     0.073 H 
ENDROOT
BRANCH   1   4
ATOM      4  C   UNL     1     -46.052  35.598  27.523  1.00  0.00     0.123 C 
ATOM      5  C   UNL     1     -46.412  37.700  28.496  1.00  0.00     0.169 C 
ATOM      6  O   UNL     1     -45.589  36.970  27.552  1.00  0.00    -0.345 OA
ATOM      7  C   UNL     1     -47.578  36.797  28.880  1.00  0.00     0.173 C 
ATOM      8  H   UNL     1     -45.769  37.908  29.361  1.00  0.00     0.088 H 
ATOM      9  C   UNL     1     -46.961  35.426  28.742  1.00  0.00     0.119 C 
ATOM     10  F   UNL     1     -48.597  36.889  27.979  1.00  0.00    -0.239 F 
ATOM     11  H   UNL     1     -47.975  37.018  29.875  1.00  0.00     0.074 H 
ATOM     12  H   UNL     1     -45.159  34.969  27.600  1.00  0.00     0.067 H 
ATOM     13  H   UNL     1     -47.703  34.634  28.611  1.00  0.00     0.066 H 
BRANCH   5  14
ATOM     14  N   UNL     1     -46.816  38.978  27.938  1.00  0.00    -0.302 N 
ATOM     15  C   UNL     1     -47.994  40.768  27.333  1.00  0.00     0.033 A 
ATOM     16  C   UNL     1     -48.071  39.530  27.943  1.00  0.00     0.019 A 
ATOM     17  C   UNL     1     -46.653  40.954  26.885  1.00  0.00     0.071 A 
ATOM     18  H   UNL     1     -48.915  39.018  28.389  1.00  0.00     0.083 H 
ATOM     19  C   UNL     1     -45.947  39.830  27.301  1.00  0.00     0.148 A 
ATOM     20  C   UNL     1     -45.918  41.913  26.166  1.00  0.00     0.137 A 
ATOM     21  N   UNL     1     -44.636  39.589  27.119  1.00  0.00    -0.218 NA
ATOM     22  N   UNL     1     -44.599  41.710  25.963  1.00  0.00    -0.219 NA
ATOM     23  C   UNL     1     -44.041  40.587  26.448  1.00  0.00     0.120 A 
ATOM     24  H   UNL     1     -42.976  40.472  26.268  1.00  0.00     0.106 H 
BRANCH  15  25
ATOM     25  C   UNL     1     -49.105  41.702  27.177  1.00  0.00     0.095 A 
ATOM     26  N   UNL     1     -50.586  42.912  26.283  1.00  0.00    -0.275 N 
ATOM     27  C   UNL     1     -50.815  43.028  27.622  1.00  0.00     0.025 A 
ATOM     28  N   UNL     1     -49.549  42.109  25.983  1.00  0.00    -0.173 NA
ATOM     29  C   UNL     1     -49.870  42.237  28.235  1.00  0.00    -0.016 A 
ATOM     30  H   UNL     1     -51.617  43.635  28.019  1.00  0.00     0.084 H 
ATOM     31  H   UNL     1     -49.754  42.066  29.297  1.00  0.00     0.066 H 
BRANCH  26  32
ATOM     32  C   UNL     1     -51.327  43.539  25.216  1.00  0.00     0.030 C 
ATOM     33  H   UNL     1     -50.618  44.024  24.541  1.00  0.00     0.048 H 
ATOM     34  H   UNL     1     -51.899  42.780  24.676  1.00  0.00     0.048 H 
ATOM     35  H   UNL     1     -52.006  44.275  25.655  1.00  0.00     0.048 H 
ENDBRANCH  26  32
ENDBRANCH  15  25
BRANCH  20  36
ATOM     36  N   UNL     1     -46.455  43.060  25.597  1.00  0.00    -0.383 N 
ATOM     37  H   UNL     1     -46.598  43.812  26.262  1.00  0.00     0.158 HD
ATOM     38  H   UNL     1     -47.267  42.816  25.040  1.00  0.00     0.158 HD
ENDBRANCH  20  36
ENDBRANCH   5  14
BRANCH   9  39
ATOM     39  O   UNL     1     -46.201  35.130  29.918  1.00  0.00    -0.387 OA
ATOM     40  H   UNL     1     -45.922  34.197  29.872  1.00  0.00     0.211 HD
ENDBRANCH   9  39
ENDBRANCH   1   4
BRANCH   1  41
ATOM     41  O   UNL     1     -47.800  34.344  26.345  1.00  0.00    -0.491 OA
BRANCH  41  42
ATOM     42  C   UNL     1     -47.645  33.149  25.700  1.00  0.00     0.121 A 
ATOM     43  C   UNL     1     -46.627  33.138  24.747  1.00  0.00    -0.019 A 
ATOM     44  C   UNL     1     -48.391  31.989  25.914  1.00  0.00     0.007 A 
ATOM     45  C   UNL     1     -46.352  31.978  24.025  1.00  0.00    -0.049 A 
ATOM     46  H   UNL     1     -46.040  34.037  24.574  1.00  0.00     0.066 H 
ATOM     47  C   UNL     1     -48.138  30.818  25.210  1.00  0.00     0.076 A 
ATOM     48  H   UNL     1     -49.197  31.952  26.637  1.00  0.00     0.069 H 
ATOM     49  C   UNL     1     -47.104  30.816  24.254  1.00  0.00     0.001 A 
ATOM     50  H   UNL     1     -45.552  31.988  23.290  1.00  0.00     0.063 H 
ATOM     51  N   UNL     1     -48.884  29.729  25.467  1.00  0.00    -0.231 NA
ATOM     52  C   UNL     1     -46.860  29.629  23.562  1.00  0.00    -0.049 A 
ATOM     53  C   UNL     1     -48.646  28.585  24.785  1.00  0.00     0.129 A 
ATOM     54  C   UNL     1     -47.636  28.506  23.832  1.00  0.00    -0.019 A 
ATOM     55  H   UNL     1     -46.070  29.567  22.818  1.00  0.00     0.063 H 
ATOM     56  H   UNL     1     -47.441  27.578  23.306  1.00  0.00     0.066 H 
BRANCH  53  57
ATOM     57  N   UNL     1     -49.429  27.454  25.076  1.00  0.00    -0.353 N 
ATOM     58  C   UNL     1     -50.846  27.316  24.865  1.00  0.00     0.036 C 
ATOM     59  C   UNL     1     -49.486  26.815  26.364  1.00  0.00     0.036 C 
ATOM     60  C   UNL     1     -50.798  26.165  25.888  1.00  0.00     0.040 C 
ATOM     61  H   UNL     1     -51.099  27.024  23.842  1.00  0.00     0.051 H 
ATOM     62  H   UNL     1     -51.401  28.217  25.154  1.00  0.00     0.051 H 
ATOM     63  H   UNL     1     -48.653  26.126  26.533  1.00  0.00     0.051 H 
ATOM     64  H   UNL     1     -49.559  27.534  27.187  1.00  0.00     0.051 H 
ATOM     65  H   UNL     1     -50.703  25.163  25.459  1.00  0.00     0.050 H 
BRANCH  60  66
ATOM     66  N   UNL     1     -51.859  26.325  26.892  1.00  0.00    -0.325 NA
ATOM     67  H   UNL     1     -52.631  26.924  26.595  1.00  0.00     0.119 HD
ATOM     68  H   UNL     1     -51.526  26.722  27.770  1.00  0.00     0.119 HD
ENDBRANCH  60  66
ENDBRANCH  53  57
ENDBRANCH  41  42
ENDBRANCH   1  41
TORSDOF 10
ENDMDL
MODEL 3
REMARK VINA RESULT:     -10.0      4.376      9.356
REMARK SMILES Cn1ccc(-c2cn([C@@H]3O[C@H](COc4ccc5ccc(N6CC(N)C6)nc5c4)[C@@H](O)[C@@H]3F)c3ncnc(N)c23)n1
REMARK SMILES IDX 12 1 11 4 9 5 10 6 31 7 29 9 32 10 8 14 6 15 7 16 39 17
REMARK SMILES IDX 33 19 37 20 34 21 36 22 35 23 5 25 2 26 3 27 40 28 4 29 1 32
REMARK SMILES IDX 38 36 30 39 13 41 14 42 15 43 28 44 16 45 27 47 17 49 26 51
REMARK SMILES IDX 18 52 20 53 19 54 21 57 22 58 25 59 23 60 24 66
REMARK H PARENT 12 2 12 3 9 8 31 11 11 12 29 13 7 18 35 24 3 30 4 31 1 33 1 34
REMARK H PARENT 1 35 38 37 38 38 30 40 15 46 28 48 16 50 18 55 19 56 22 61
REMARK H PARENT 22 62 25 63 25 64 23 65 24 67 24 68
REMARK Flexibility Score: inf
ROOT
ATOM      1  C   UNL     1     -45.160  36.178  28.761  1.00  0.00     0.117 C 
ATOM      2  H   UNL     1     -44.744  36.394  27.771  1.00  0.00     0.073 H 
ATOM      3  H   UNL     1     -44.341  35.756  29.354  1.00  0.00     0.073 H 
ENDROOT
BRANCH   1   4
ATOM      4  C   UNL     1     -46.359  35.222  28.628  1.00  0.00     0.123 C 
ATOM      5  C   UNL     1     -48.361  36.213  27.915  1.00  0.00     0.169 C 
ATOM      6  O   UNL     1     -47.555  35.905  29.080  1.00  0.00    -0.345 OA
ATOM      7  C   UNL     1     -47.513  35.923  26.682  1.00  0.00     0.173 C 
ATOM      8  H   UNL     1     -49.231  35.547  27.964  1.00  0.00     0.088 H 
ATOM      9  C   UNL     1     -46.623  34.809  27.179  1.00  0.00     0.119 C 
ATOM     10  F   UNL     1     -46.717  36.983  26.364  1.00  0.00    -0.239 F 
ATOM     11  H   UNL     1     -48.115  35.667  25.806  1.00  0.00     0.074 H 
ATOM     12  H   UNL     1     -46.240  34.349  29.276  1.00  0.00     0.067 H 
ATOM     13  H   UNL     1     -45.706  34.700  26.594  1.00  0.00     0.066 H 
BRANCH   5  14
ATOM     14  N   UNL     1     -48.853  37.578  27.983  1.00  0.00    -0.302 N 
ATOM     15  C   UNL     1     -49.039  39.791  27.828  1.00  0.00     0.033 A 
ATOM     16  C   UNL     1     -48.184  38.723  27.634  1.00  0.00     0.019 A 
ATOM     17  C   UNL     1     -50.258  39.286  28.371  1.00  0.00     0.071 A 
ATOM     18  H   UNL     1     -47.167  38.696  27.263  1.00  0.00     0.083 H 
ATOM     19  C   UNL     1     -50.111  37.904  28.430  1.00  0.00     0.148 A 
ATOM     20  C   UNL     1     -51.479  39.795  28.844  1.00  0.00     0.137 A 
ATOM     21  N   UNL     1     -51.025  37.013  28.854  1.00  0.00    -0.218 NA
ATOM     22  N   UNL     1     -52.424  38.935  29.277  1.00  0.00    -0.219 NA
ATOM     23  C   UNL     1     -52.155  37.619  29.250  1.00  0.00     0.120 A 
ATOM     24  H   UNL     1     -52.948  36.966  29.600  1.00  0.00     0.106 H 
BRANCH  15  25
ATOM     25  C   UNL     1     -48.728  41.186  27.530  1.00  0.00     0.095 A 
ATOM     26  N   UNL     1     -48.631  43.289  27.693  1.00  0.00    -0.275 N 
ATOM     27  C   UNL     1     -47.865  42.996  26.603  1.00  0.00     0.025 A 
ATOM     28  N   UNL     1     -49.169  42.203  28.278  1.00  0.00    -0.173 NA
ATOM     29  C   UNL     1     -47.898  41.626  26.478  1.00  0.00    -0.016 A 
ATOM     30  H   UNL     1     -47.362  43.762  26.030  1.00  0.00     0.084 H 
ATOM     31  H   UNL     1     -47.389  41.028  25.734  1.00  0.00     0.066 H 
BRANCH  26  32
ATOM     32  C   UNL     1     -48.892  44.594  28.247  1.00  0.00     0.030 C 
ATOM     33  H   UNL     1     -49.329  45.221  27.465  1.00  0.00     0.048 H 
ATOM     34  H   UNL     1     -49.589  44.501  29.084  1.00  0.00     0.048 H 
ATOM     35  H   UNL     1     -47.946  45.016  28.595  1.00  0.00     0.048 H 
ENDBRANCH  26  32
ENDBRANCH  15  25
BRANCH  20  36
ATOM     36  N   UNL     1     -51.787  41.146  28.946  1.00  0.00    -0.383 N 
ATOM     37  H   UNL     1     -51.565  41.544  29.851  1.00  0.00     0.158 HD
ATOM     38  H   UNL     1     -52.736  41.304  28.626  1.00  0.00     0.158 HD
ENDBRANCH  20  36
ENDBRANCH   5  14
BRANCH   9  39
ATOM     39  O   UNL     1     -47.338  33.571  27.115  1.00  0.00    -0.387 OA
ATOM     40  H   UNL     1     -46.906  32.940  27.720  1.00  0.00     0.211 HD
ENDBRANCH   9  39
ENDBRANCH   1   4
BRANCH   1  41
ATOM     41  O   UNL     1     -45.568  37.449  29.284  1.00  0.00    -0.491 OA
BRANCH  41  42
ATOM     42  C   UNL     1     -44.790  38.546  29.035  1.00  0.00     0.121 A 
ATOM     43  C   UNL     1     -43.810  38.787  29.997  1.00  0.00    -0.019 A 
ATOM     44  C   UNL     1     -44.893  39.403  27.939  1.00  0.00     0.007 A 
ATOM     45  C   UNL     1     -42.939  39.866  29.860  1.00  0.00    -0.049 A 
ATOM     46  H   UNL     1     -43.723  38.124  30.855  1.00  0.00     0.066 H 
ATOM     47  C   UNL     1     -44.036  40.485  27.774  1.00  0.00     0.076 A 
ATOM     48  H   UNL     1     -45.643  39.261  27.170  1.00  0.00     0.069 H 
ATOM     49  C   UNL     1     -43.048  40.716  28.749  1.00  0.00     0.001 A 
ATOM     50  H   UNL     1     -42.179  40.034  30.619  1.00  0.00     0.063 H 
ATOM     51  N   UNL     1     -44.179  41.270  26.692  1.00  0.00    -0.231 NA
ATOM     52  C   UNL     1     -42.193  41.804  28.565  1.00  0.00    -0.049 A 
ATOM     53  C   UNL     1     -43.351  42.327  26.525  1.00  0.00     0.129 A 
ATOM     54  C   UNL     1     -42.345  42.612  27.442  1.00  0.00    -0.019 A 
ATOM     55  H   UNL     1     -41.407  42.026  29.282  1.00  0.00     0.063 H 
ATOM     56  H   UNL     1     -41.674  43.450  27.288  1.00  0.00     0.066 H 
BRANCH  53  57
ATOM     57  N   UNL     1     -43.508  43.130  25.381  1.00  0.00    -0.353 N 
ATOM     58  C   UNL     1     -43.864  42.679  24.062  1.00  0.00     0.036 C 
ATOM     59  C   UNL     1     -42.507  44.035  24.880  1.00  0.00     0.036 C 
ATOM     60  C   UNL     1     -43.272  44.004  23.543  1.00  0.00     0.040 C 
ATOM     61  H   UNL     1     -44.943  42.563  23.927  1.00  0.00     0.051 H 
ATOM     62  H   UNL     1     -43.342  41.756  23.780  1.00  0.00     0.051 H 
ATOM     63  H   UNL     1     -42.507  44.996  25.400  1.00  0.00     0.051 H 
ATOM     64  H   UNL     1     -41.503  43.596  24.886  1.00  0.00     0.051 H 
ATOM     65  H   UNL     1     -43.996  44.810  23.392  1.00  0.00     0.050 H 
BRANCH  60  66
ATOM     66  N   UNL     1     -42.359  43.754  22.420  1.00  0.00    -0.325 NA
ATOM     67  H   UNL     1     -42.566  42.906  21.890  1.00  0.00     0.119 HD
ATOM     68  H   UNL     1     -41.384  43.668  22.705  1.00  0.00     0.119 HD
ENDBRANCH  60  66
ENDBRANCH  53  57
ENDBRANCH  41  42
ENDBRANCH   1  41
TORSDOF 10
ENDMDL
MODEL 4
REMARK VINA RESULT:      -9.7      1.477      2.137
REMARK SMILES Cn1ccc(-c2cn([C@@H]3O[C@H](COc4ccc5ccc(N6CC(N)C6)nc5c4)[C@@H](O)[C@@H]3F)c3ncnc(N)c23)n1
REMARK SMILES IDX 12 1 11 4 9 5 10 6 31 7 29 9 32 10 8 14 6 15 7 16 39 17
REMARK SMILES IDX 33 19 37 20 34 21 36 22 35 23 5 25 2 26 3 27 40 28 4 29 1 32
REMARK SMILES IDX 38 36 30 39 13 41 14 42 15 43 28 44 16 45 27 47 17 49 26 51
REMARK SMILES IDX 18 52 20 53 19 54 21 57 22 58 25 59 23 60 24 66
REMARK H PARENT 12 2 12 3 9 8 31 11 11 12 29 13 7 18 35 24 3 30 4 31 1 33 1 34
REMARK H PARENT 1 35 38 37 38 38 30 40 15 46 28 48 16 50 18 55 19 56 22 61
REMARK H PARENT 22 62 25 63 25 64 23 65 24 67 24 68
REMARK Flexibility Score: inf
ROOT
ATOM      1  C   UNL     1     -46.935  36.371  26.976  1.00  0.00     0.117 C 
ATOM      2  H   UNL     1     -46.794  37.391  26.603  1.00  0.00     0.073 H 
ATOM      3  H   UNL     1     -48.006  36.264  27.182  1.00  0.00     0.073 H 
ENDROOT
BRANCH   1   4
ATOM      4  C   UNL     1     -46.059  36.143  28.221  1.00  0.00     0.123 C 
ATOM      5  C   UNL     1     -44.995  38.054  29.066  1.00  0.00     0.169 C 
ATOM      6  O   UNL     1     -44.872  36.967  28.115  1.00  0.00    -0.345 OA
ATOM      7  C   UNL     1     -46.421  38.031  29.604  1.00  0.00     0.173 C 
ATOM      8  H   UNL     1     -44.267  37.845  29.860  1.00  0.00     0.088 H 
ATOM      9  C   UNL     1     -46.757  36.561  29.516  1.00  0.00     0.119 C 
ATOM     10  F   UNL     1     -47.275  38.704  28.782  1.00  0.00    -0.239 F 
ATOM     11  H   UNL     1     -46.501  38.456  30.609  1.00  0.00     0.074 H 
ATOM     12  H   UNL     1     -45.711  35.106  28.272  1.00  0.00     0.067 H 
ATOM     13  H   UNL     1     -47.833  36.368  29.501  1.00  0.00     0.066 H 
BRANCH   5  14
ATOM     14  N   UNL     1     -44.619  39.314  28.450  1.00  0.00    -0.302 N 
ATOM     15  C   UNL     1     -44.553  41.121  27.152  1.00  0.00     0.033 A 
ATOM     16  C   UNL     1     -45.214  39.929  27.380  1.00  0.00     0.019 A 
ATOM     17  C   UNL     1     -43.476  41.211  28.082  1.00  0.00     0.071 A 
ATOM     18  H   UNL     1     -46.064  39.489  26.873  1.00  0.00     0.083 H 
ATOM     19  C   UNL     1     -43.565  40.080  28.887  1.00  0.00     0.148 A 
ATOM     20  C   UNL     1     -42.411  42.084  28.363  1.00  0.00     0.137 A 
ATOM     21  N   UNL     1     -42.765  39.761  29.921  1.00  0.00    -0.218 NA
ATOM     22  N   UNL     1     -41.586  41.802  29.393  1.00  0.00    -0.219 NA
ATOM     23  C   UNL     1     -41.809  40.684  30.106  1.00  0.00     0.120 A 
ATOM     24  H   UNL     1     -41.125  40.504  30.929  1.00  0.00     0.106 H 
BRANCH  15  25
ATOM     25  C   UNL     1     -44.907  42.100  26.128  1.00  0.00     0.095 A 
ATOM     26  N   UNL     1     -44.838  43.259  24.365  1.00  0.00    -0.275 N 
ATOM     27  C   UNL     1     -46.016  43.608  24.955  1.00  0.00     0.025 A 
ATOM     28  N   UNL     1     -44.142  42.340  25.058  1.00  0.00    -0.173 NA
ATOM     29  C   UNL     1     -46.098  42.857  26.105  1.00  0.00    -0.016 A 
ATOM     30  H   UNL     1     -46.689  44.330  24.515  1.00  0.00     0.084 H 
ATOM     31  H   UNL     1     -46.906  42.852  26.824  1.00  0.00     0.066 H 
BRANCH  26  32
ATOM     32  C   UNL     1     -44.307  43.758  23.120  1.00  0.00     0.030 C 
ATOM     33  H   UNL     1     -43.456  43.135  22.833  1.00  0.00     0.048 H 
ATOM     34  H   UNL     1     -45.081  43.713  22.350  1.00  0.00     0.048 H 
ATOM     35  H   UNL     1     -43.992  44.794  23.272  1.00  0.00     0.048 H 
ENDBRANCH  26  32
ENDBRANCH  15  25
BRANCH  20  36
ATOM     36  N   UNL     1     -42.103  43.220  27.626  1.00  0.00    -0.383 N 
ATOM     37  H   UNL     1     -42.900  43.825  27.463  1.00  0.00     0.158 HD
ATOM     38  H   UNL     1     -41.584  42.958  26.795  1.00  0.00     0.158 HD
ENDBRANCH  20  36
ENDBRANCH   5  14
BRANCH   9  39
ATOM     39  O   UNL     1     -46.201  35.883  30.647  1.00  0.00    -0.387 OA
ATOM     40  H   UNL     1     -46.888  35.833  31.338  1.00  0.00     0.211 HD
ENDBRANCH   9  39
ENDBRANCH   1   4
BRANCH   1  41
ATOM     41  O   UNL     1     -46.534  35.517  25.897  1.00  0.00    -0.491 OA
BRANCH  41  42
ATOM     42  C   UNL     1     -47.176  34.322  25.727  1.00  0.00     0.121 A 
ATOM     43  C   UNL     1     -48.468  34.283  26.249  1.00  0.00    -0.019 A 
ATOM     44  C   UNL     1     -46.662  33.189  25.094  1.00  0.00     0.007 A 
ATOM     45  C   UNL     1     -49.240  33.129  26.131  1.00  0.00    -0.049 A 
ATOM     46  H   UNL     1     -48.877  35.161  26.743  1.00  0.00     0.066 H 
ATOM     47  C   UNL     1     -47.410  32.025  24.960  1.00  0.00     0.076 A 
ATOM     48  H   UNL     1     -45.661  33.169  24.680  1.00  0.00     0.069 H 
ATOM     49  C   UNL     1     -48.716  31.998  25.486  1.00  0.00     0.001 A 
ATOM     50  H   UNL     1     -50.247  33.119  26.541  1.00  0.00     0.063 H 
ATOM     51  N   UNL     1     -46.864  30.969  24.332  1.00  0.00    -0.231 NA
ATOM     52  C   UNL     1     -49.454  30.823  25.337  1.00  0.00    -0.049 A 
ATOM     53  C   UNL     1     -47.584  29.831  24.199  1.00  0.00     0.129 A 
ATOM     54  C   UNL     1     -48.884  29.733  24.686  1.00  0.00    -0.019 A 
ATOM     55  H   UNL     1     -50.469  30.748  25.717  1.00  0.00     0.063 H 
ATOM     56  H   UNL     1     -49.458  28.823  24.555  1.00  0.00     0.066 H 
BRANCH  53  57
ATOM     57  N   UNL     1     -47.001  28.741  23.528  1.00  0.00    -0.353 N 
ATOM     58  C   UNL     1     -46.973  27.375  23.978  1.00  0.00     0.036 C 
ATOM     59  C   UNL     1     -45.632  28.698  23.085  1.00  0.00     0.036 C 
ATOM     60  C   UNL     1     -45.797  27.169  23.005  1.00  0.00     0.040 C 
ATOM     61  H   UNL     1     -47.886  26.825  23.731  1.00  0.00     0.051 H 
ATOM     62  H   UNL     1     -46.755  27.291  25.049  1.00  0.00     0.051 H 
ATOM     63  H   UNL     1     -45.480  29.207  22.129  1.00  0.00     0.051 H 
ATOM     64  H   UNL     1     -44.935  29.083  23.837  1.00  0.00     0.051 H 
ATOM     65  H   UNL     1     -46.067  26.772  22.022  1.00  0.00     0.050 H 
BRANCH  60  66
ATOM     66  N   UNL     1     -44.685  26.485  23.680  1.00  0.00    -0.325 NA
ATOM     67  H   UNL     1     -43.993  27.112  24.091  1.00  0.00     0.119 HD
ATOM     68  H   UNL     1     -44.161  25.863  23.064  1.00  0.00     0.119 HD
ENDBRANCH  60  66
ENDBRANCH  53  57
ENDBRANCH  41  42
ENDBRANCH   1  41
TORSDOF 10
ENDMDL
MODEL 5
REMARK VINA RESULT:      -9.1      5.191      8.127
REMARK SMILES Cn1ccc(-c2cn([C@@H]3O[C@H](COc4ccc5ccc(N6CC(N)C6)nc5c4)[C@@H](O)[C@@H]3F)c3ncnc(N)c23)n1
REMARK SMILES IDX 12 1 11 4 9 5 10 6 31 7 29 9 32 10 8 14 6 15 7 16 39 17
REMARK SMILES IDX 33 19 37 20 34 21 36 22 35 23 5 25 2 26 3 27 40 28 4 29 1 32
REMARK SMILES IDX 38 36 30 39 13 41 14 42 15 43 28 44 16 45 27 47 17 49 26 51
REMARK SMILES IDX 18 52 20 53 19 54 21 57 22 58 25 59 23 60 24 66
REMARK H PARENT 12 2 12 3 9 8 31 11 11 12 29 13 7 18 35 24 3 30 4 31 1 33 1 34
REMARK H PARENT 1 35 38 37 38 38 30 40 15 46 28 48 16 50 18 55 19 56 22 61
REMARK H PARENT 22 62 25 63 25 64 23 65 24 67 24 68
REMARK Flexibility Score: inf
ROOT
ATOM      1  C   UNL     1     -47.720  36.806  27.263  1.00  0.00     0.117 C 
ATOM      2  H   UNL     1     -47.827  36.206  26.352  1.00  0.00     0.073 H 
ATOM      3  H   UNL     1     -47.537  37.834  26.935  1.00  0.00     0.073 H 
ENDROOT
BRANCH   1   4
ATOM      4  C   UNL     1     -46.581  36.241  28.131  1.00  0.00     0.123 C 
ATOM      5  C   UNL     1     -44.982  37.805  28.832  1.00  0.00     0.169 C 
ATOM      6  O   UNL     1     -45.343  36.896  27.762  1.00  0.00    -0.345 OA
ATOM      7  C   UNL     1     -46.169  37.887  29.783  1.00  0.00     0.173 C 
ATOM      8  H   UNL     1     -44.108  37.360  29.326  1.00  0.00     0.088 H 
ATOM      9  C   UNL     1     -46.785  36.518  29.622  1.00  0.00     0.119 C 
ATOM     10  F   UNL     1     -47.082  38.808  29.362  1.00  0.00    -0.239 F 
ATOM     11  H   UNL     1     -45.876  38.135  30.807  1.00  0.00     0.074 H 
ATOM     12  H   UNL     1     -46.434  35.174  27.941  1.00  0.00     0.067 H 
ATOM     13  H   UNL     1     -47.836  36.483  29.921  1.00  0.00     0.066 H 
BRANCH   5  14
ATOM     14  N   UNL     1     -44.570  39.089  28.293  1.00  0.00    -0.302 N 
ATOM     15  C   UNL     1     -44.410  40.935  27.059  1.00  0.00     0.033 A 
ATOM     16  C   UNL     1     -45.068  39.727  27.187  1.00  0.00     0.019 A 
ATOM     17  C   UNL     1     -43.431  41.013  28.093  1.00  0.00     0.071 A 
ATOM     18  H   UNL     1     -45.856  39.290  26.586  1.00  0.00     0.083 H 
ATOM     19  C   UNL     1     -43.577  39.857  28.853  1.00  0.00     0.148 A 
ATOM     20  C   UNL     1     -42.414  41.894  28.502  1.00  0.00     0.137 A 
ATOM     21  N   UNL     1     -42.877  39.520  29.951  1.00  0.00    -0.218 NA
ATOM     22  N   UNL     1     -41.689  41.593  29.600  1.00  0.00    -0.219 NA
ATOM     23  C   UNL     1     -41.961  40.451  30.255  1.00  0.00     0.120 A 
ATOM     24  H   UNL     1     -41.358  40.257  31.136  1.00  0.00     0.106 H 
BRANCH  15  25
ATOM     25  C   UNL     1     -44.679  41.939  26.034  1.00  0.00     0.095 A 
ATOM     26  N   UNL     1     -44.407  43.246  24.399  1.00  0.00    -0.275 N 
ATOM     27  C   UNL     1     -45.727  43.368  24.714  1.00  0.00     0.025 A 
ATOM     28  N   UNL     1     -43.744  42.380  25.187  1.00  0.00    -0.173 NA
ATOM     29  C   UNL     1     -45.941  42.515  25.773  1.00  0.00    -0.016 A 
ATOM     30  H   UNL     1     -46.393  44.021  24.168  1.00  0.00     0.084 H 
ATOM     31  H   UNL     1     -46.878  42.330  26.281  1.00  0.00     0.066 H 
BRANCH  26  32
ATOM     32  C   UNL     1     -43.699  43.925  23.341  1.00  0.00     0.030 C 
ATOM     33  H   UNL     1     -42.631  43.720  23.453  1.00  0.00     0.048 H 
ATOM     34  H   UNL     1     -44.050  43.557  22.374  1.00  0.00     0.048 H 
ATOM     35  H   UNL     1     -43.897  44.996  23.427  1.00  0.00     0.048 H 
ENDBRANCH  26  32
ENDBRANCH  15  25
BRANCH  20  36
ATOM     36  N   UNL     1     -42.056  43.056  27.831  1.00  0.00    -0.383 N 
ATOM     37  H   UNL     1     -41.657  43.765  28.437  1.00  0.00     0.158 HD
ATOM     38  H   UNL     1     -42.828  43.368  27.253  1.00  0.00     0.158 HD
ENDBRANCH  20  36
ENDBRANCH   5  14
BRANCH   9  39
ATOM     39  O   UNL     1     -46.065  35.579  30.427  1.00  0.00    -0.387 OA
ATOM     40  H   UNL     1     -45.702  36.056  31.197  1.00  0.00     0.211 HD
ENDBRANCH   9  39
ENDBRANCH   1   4
BRANCH   1  41
ATOM     41  O   UNL     1     -48.982  36.699  27.934  1.00  0.00    -0.491 OA
BRANCH  41  42
ATOM     42  C   UNL     1     -49.759  37.817  28.064  1.00  0.00     0.121 A 
ATOM     43  C   UNL     1     -51.115  37.557  28.257  1.00  0.00    -0.019 A 
ATOM     44  C   UNL     1     -49.318  39.140  28.024  1.00  0.00     0.007 A 
ATOM     45  C   UNL     1     -52.016  38.607  28.418  1.00  0.00    -0.049 A 
ATOM     46  H   UNL     1     -51.468  36.528  28.289  1.00  0.00     0.066 H 
ATOM     47  C   UNL     1     -50.194  40.207  28.185  1.00  0.00     0.076 A 
ATOM     48  H   UNL     1     -48.275  39.392  27.869  1.00  0.00     0.069 H 
ATOM     49  C   UNL     1     -51.560  39.933  28.384  1.00  0.00     0.001 A 
ATOM     50  H   UNL     1     -53.069  38.383  28.572  1.00  0.00     0.063 H 
ATOM     51  N   UNL     1     -49.708  41.460  28.146  1.00  0.00    -0.231 NA
ATOM     52  C   UNL     1     -52.425  41.016  28.549  1.00  0.00    -0.049 A 
ATOM     53  C   UNL     1     -50.555  42.505  28.299  1.00  0.00     0.129 A 
ATOM     54  C   UNL     1     -51.916  42.311  28.509  1.00  0.00    -0.019 A 
ATOM     55  H   UNL     1     -53.488  40.864  28.713  1.00  0.00     0.063 H 
ATOM     56  H   UNL     1     -52.581  43.155  28.650  1.00  0.00     0.066 H 
BRANCH  53  57
ATOM     57  N   UNL     1     -50.026  43.808  28.268  1.00  0.00    -0.353 N 
ATOM     58  C   UNL     1     -48.838  44.234  27.576  1.00  0.00     0.036 C 
ATOM     59  C   UNL     1     -49.710  44.585  29.438  1.00  0.00     0.036 C 
ATOM     60  C   UNL     1     -48.832  45.453  28.518  1.00  0.00     0.040 C 
ATOM     61  H   UNL     1     -49.016  44.457  26.521  1.00  0.00     0.051 H 
ATOM     62  H   UNL     1     -48.014  43.518  27.682  1.00  0.00     0.051 H 
ATOM     63  H   UNL     1     -50.584  45.084  29.863  1.00  0.00     0.051 H 
ATOM     64  H   UNL     1     -49.194  43.997  30.206  1.00  0.00     0.051 H 
ATOM     65  H   UNL     1     -49.308  46.353  28.119  1.00  0.00     0.050 H 
BRANCH  60  66
ATOM     66  N   UNL     1     -47.495  45.647  29.097  1.00  0.00    -0.325 NA
ATOM     67  H   UNL     1     -46.847  46.159  28.497  1.00  0.00     0.119 HD
ATOM     68  H   UNL     1     -47.024  44.773  29.327  1.00  0.00     0.119 HD
ENDBRANCH  60  66
ENDBRANCH  53  57
ENDBRANCH  41  42
ENDBRANCH   1  41
TORSDOF 10
ENDMDL
MODEL 6
REMARK VINA RESULT:      -9.0      3.346      6.288
REMARK SMILES Cn1ccc(-c2cn([C@@H]3O[C@H](COc4ccc5ccc(N6CC(N)C6)nc5c4)[C@@H](O)[C@@H]3F)c3ncnc(N)c23)n1
REMARK SMILES IDX 12 1 11 4 9 5 10 6 31 7 29 9 32 10 8 14 6 15 7 16 39 17
REMARK SMILES IDX 33 19 37 20 34 21 36 22 35 23 5 25 2 26 3 27 40 28 4 29 1 32
REMARK SMILES IDX 38 36 30 39 13 41 14 42 15 43 28 44 16 45 27 47 17 49 26 51
REMARK SMILES IDX 18 52 20 53 19 54 21 57 22 58 25 59 23 60 24 66
REMARK H PARENT 12 2 12 3 9 8 31 11 11 12 29 13 7 18 35 24 3 30 4 31 1 33 1 34
REMARK H PARENT 1 35 38 37 38 38 30 40 15 46 28 48 16 50 18 55 19 56 22 61
REMARK H PARENT 22 62 25 63 25 64 23 65 24 67 24 68
REMARK Flexibility Score: inf
ROOT
ATOM      1  C   UNL     1     -44.021  40.387  28.086  1.00  0.00     0.117 C 
ATOM      2  H   UNL     1     -43.867  41.020  28.966  1.00  0.00     0.073 H 
ATOM      3  H   UNL     1     -43.878  39.354  28.421  1.00  0.00     0.073 H 
ENDROOT
BRANCH   1   4
ATOM      4  C   UNL     1     -43.044  40.795  26.969  1.00  0.00     0.123 C 
ATOM      5  C   UNL     1     -43.599  42.759  25.815  1.00  0.00     0.169 C 
ATOM      6  O   UNL     1     -43.802  41.324  25.854  1.00  0.00    -0.345 OA
ATOM      7  C   UNL     1     -42.883  43.155  27.101  1.00  0.00     0.173 C 
ATOM      8  H   UNL     1     -42.972  42.953  24.936  1.00  0.00     0.088 H 
ATOM      9  C   UNL     1     -42.087  41.908  27.403  1.00  0.00     0.119 C 
ATOM     10  F   UNL     1     -43.764  43.345  28.124  1.00  0.00    -0.239 F 
ATOM     11  H   UNL     1     -42.282  44.061  26.989  1.00  0.00     0.074 H 
ATOM     12  H   UNL     1     -42.498  39.927  26.586  1.00  0.00     0.067 H 
ATOM     13  H   UNL     1     -41.794  41.830  28.453  1.00  0.00     0.066 H 
BRANCH   5  14
ATOM     14  N   UNL     1     -44.862  43.447  25.610  1.00  0.00    -0.302 N 
ATOM     15  C   UNL     1     -47.013  44.021  25.650  1.00  0.00     0.033 A 
ATOM     16  C   UNL     1     -46.104  43.054  26.037  1.00  0.00     0.019 A 
ATOM     17  C   UNL     1     -46.308  45.013  24.907  1.00  0.00     0.071 A 
ATOM     18  H   UNL     1     -46.249  42.136  26.594  1.00  0.00     0.083 H 
ATOM     19  C   UNL     1     -44.971  44.633  24.924  1.00  0.00     0.148 A 
ATOM     20  C   UNL     1     -46.605  46.189  24.197  1.00  0.00     0.137 A 
ATOM     21  N   UNL     1     -43.938  45.291  24.368  1.00  0.00    -0.218 NA
ATOM     22  N   UNL     1     -45.597  46.881  23.625  1.00  0.00    -0.219 NA
ATOM     23  C   UNL     1     -44.344  46.409  23.747  1.00  0.00     0.120 A 
ATOM     24  H   UNL     1     -43.567  47.003  23.278  1.00  0.00     0.106 H 
BRANCH  15  25
ATOM     25  C   UNL     1     -48.441  44.005  25.953  1.00  0.00     0.095 A 
ATOM     26  N   UNL     1     -50.510  43.616  25.800  1.00  0.00    -0.275 N 
ATOM     27  C   UNL     1     -50.371  44.248  27.000  1.00  0.00     0.025 A 
ATOM     28  N   UNL     1     -49.349  43.454  25.141  1.00  0.00    -0.173 NA
ATOM     29  C   UNL     1     -49.026  44.505  27.136  1.00  0.00    -0.016 A 
ATOM     30  H   UNL     1     -51.213  44.446  27.648  1.00  0.00     0.084 H 
ATOM     31  H   UNL     1     -48.535  44.981  27.974  1.00  0.00     0.066 H 
BRANCH  26  32
ATOM     32  C   UNL     1     -51.732  43.124  25.212  1.00  0.00     0.030 C 
ATOM     33  H   UNL     1     -51.533  42.862  24.170  1.00  0.00     0.048 H 
ATOM     34  H   UNL     1     -52.071  42.242  25.762  1.00  0.00     0.048 H 
ATOM     35  H   UNL     1     -52.485  43.914  25.274  1.00  0.00     0.048 H 
ENDBRANCH  26  32
ENDBRANCH  15  25
BRANCH  20  36
ATOM     36  N   UNL     1     -47.884  46.691  23.993  1.00  0.00    -0.383 N 
ATOM     37  H   UNL     1     -47.900  47.552  23.459  1.00  0.00     0.158 HD
ATOM     38  H   UNL     1     -48.383  46.721  24.875  1.00  0.00     0.158 HD
ENDBRANCH  20  36
ENDBRANCH   5  14
BRANCH   9  39
ATOM     39  O   UNL     1     -40.895  41.906  26.609  1.00  0.00    -0.387 OA
ATOM     40  H   UNL     1     -40.808  41.027  26.196  1.00  0.00     0.211 HD
ENDBRANCH   9  39
ENDBRANCH   1   4
BRANCH   1  41
ATOM     41  O   UNL     1     -45.380  40.614  27.692  1.00  0.00    -0.491 OA
BRANCH  41  42
ATOM     42  C   UNL     1     -46.241  39.552  27.645  1.00  0.00     0.121 A 
ATOM     43  C   UNL     1     -47.525  39.832  28.112  1.00  0.00    -0.019 A 
ATOM     44  C   UNL     1     -45.949  38.269  27.183  1.00  0.00     0.007 A 
ATOM     45  C   UNL     1     -48.506  38.842  28.108  1.00  0.00    -0.049 A 
ATOM     46  H   UNL     1     -47.762  40.830  28.474  1.00  0.00     0.066 H 
ATOM     47  C   UNL     1     -46.908  37.263  27.165  1.00  0.00     0.076 A 
ATOM     48  H   UNL     1     -44.964  38.002  26.818  1.00  0.00     0.069 H 
ATOM     49  C   UNL     1     -48.202  37.557  27.634  1.00  0.00     0.001 A 
ATOM     50  H   UNL     1     -49.502  39.081  28.472  1.00  0.00     0.063 H 
ATOM     51  N   UNL     1     -46.569  36.048  26.699  1.00  0.00    -0.231 NA
ATOM     52  C   UNL     1     -49.154  36.537  27.602  1.00  0.00    -0.049 A 
ATOM     53  C   UNL     1     -47.496  35.062  26.680  1.00  0.00     0.129 A 
ATOM     54  C   UNL     1     -48.797  35.282  27.119  1.00  0.00    -0.019 A 
ATOM     55  H   UNL     1     -50.171  36.709  27.945  1.00  0.00     0.063 H 
ATOM     56  H   UNL     1     -49.537  34.490  27.080  1.00  0.00     0.066 H 
BRANCH  53  57
ATOM     57  N   UNL     1     -47.125  33.802  26.178  1.00  0.00    -0.353 N 
ATOM     58  C   UNL     1     -46.316  33.547  25.016  1.00  0.00     0.036 C 
ATOM     59  C   UNL     1     -48.055  32.753  25.849  1.00  0.00     0.036 C 
ATOM     60  C   UNL     1     -46.922  32.131  25.011  1.00  0.00     0.040 C 
ATOM     61  H   UNL     1     -45.243  33.597  25.224  1.00  0.00     0.051 H 
ATOM     62  H   UNL     1     -46.573  34.202  24.176  1.00  0.00     0.051 H 
ATOM     63  H   UNL     1     -48.367  32.174  26.722  1.00  0.00     0.051 H 
ATOM     64  H   UNL     1     -48.930  33.123  25.303  1.00  0.00     0.051 H 
ATOM     65  H   UNL     1     -46.325  31.365  25.514  1.00  0.00     0.050 H 
BRANCH  60  66
ATOM     66  N   UNL     1     -47.396  31.780  23.665  1.00  0.00    -0.325 NA
ATOM     67  H   UNL     1     -46.731  31.985  22.918  1.00  0.00     0.119 HD
ATOM     68  H   UNL     1     -48.258  32.258  23.404  1.00  0.00     0.119 HD
ENDBRANCH  60  66
ENDBRANCH  53  57
ENDBRANCH  41  42
ENDBRANCH   1  41
TORSDOF 10
ENDMDL
MODEL 7
REMARK VINA RESULT:      -9.0      1.876      3.317
REMARK SMILES Cn1ccc(-c2cn([C@@H]3O[C@H](COc4ccc5ccc(N6CC(N)C6)nc5c4)[C@@H](O)[C@@H]3F)c3ncnc(N)c23)n1
REMARK SMILES IDX 12 1 11 4 9 5 10 6 31 7 29 9 32 10 8 14 6 15 7 16 39 17
REMARK SMILES IDX 33 19 37 20 34 21 36 22 35 23 5 25 2 26 3 27 40 28 4 29 1 32
REMARK SMILES IDX 38 36 30 39 13 41 14 42 15 43 28 44 16 45 27 47 17 49 26 51
REMARK SMILES IDX 18 52 20 53 19 54 21 57 22 58 25 59 23 60 24 66
REMARK H PARENT 12 2 12 3 9 8 31 11 11 12 29 13 7 18 35 24 3 30 4 31 1 33 1 34
REMARK H PARENT 1 35 38 37 38 38 30 40 15 46 28 48 16 50 18 55 19 56 22 61
REMARK H PARENT 22 62 25 63 25 64 23 65 24 67 24 68
REMARK Flexibility Score: inf
ROOT
ATOM      1  C   UNL     1     -45.940  35.581  28.166  1.00  0.00     0.117 C 
ATOM      2  H   UNL     1     -45.005  35.863  28.663  1.00  0.00     0.073 H 
ATOM      3  H   UNL     1     -45.859  35.938  27.134  1.00  0.00     0.073 H 
ENDROOT
BRANCH   1   4
ATOM      4  C   UNL     1     -47.136  36.189  28.919  1.00  0.00     0.123 C 
ATOM      5  C   UNL     1     -47.603  38.432  28.422  1.00  0.00     0.169 C 
ATOM      6  O   UNL     1     -46.820  37.558  29.273  1.00  0.00    -0.345 OA
ATOM      7  C   UNL     1     -48.242  37.567  27.342  1.00  0.00     0.173 C 
ATOM      8  H   UNL     1     -48.364  38.885  29.070  1.00  0.00     0.088 H 
ATOM      9  C   UNL     1     -48.402  36.249  28.062  1.00  0.00     0.119 C 
ATOM     10  F   UNL     1     -47.393  37.370  26.294  1.00  0.00    -0.239 F 
ATOM     11  H   UNL     1     -49.174  37.990  26.957  1.00  0.00     0.074 H 
ATOM     12  H   UNL     1     -47.318  35.662  29.861  1.00  0.00     0.067 H 
ATOM     13  H   UNL     1     -48.495  35.398  27.381  1.00  0.00     0.066 H 
BRANCH   5  14
ATOM     14  N   UNL     1     -46.779  39.509  27.902  1.00  0.00    -0.302 N 
ATOM     15  C   UNL     1     -45.050  40.792  27.335  1.00  0.00     0.033 A 
ATOM     16  C   UNL     1     -45.417  39.635  27.995  1.00  0.00     0.019 A 
ATOM     17  C   UNL     1     -46.239  41.428  26.869  1.00  0.00     0.071 A 
ATOM     18  H   UNL     1     -44.812  38.895  28.505  1.00  0.00     0.083 H 
ATOM     19  C   UNL     1     -47.290  40.587  27.220  1.00  0.00     0.148 A 
ATOM     20  C   UNL     1     -46.596  42.614  26.204  1.00  0.00     0.137 A 
ATOM     21  N   UNL     1     -48.596  40.775  26.957  1.00  0.00    -0.218 NA
ATOM     22  N   UNL     1     -47.895  42.840  25.919  1.00  0.00    -0.219 NA
ATOM     23  C   UNL     1     -48.804  41.924  26.295  1.00  0.00     0.120 A 
ATOM     24  H   UNL     1     -49.834  42.145  26.037  1.00  0.00     0.106 H 
BRANCH  15  25
ATOM     25  C   UNL     1     -43.681  41.267  27.162  1.00  0.00     0.095 A 
ATOM     26  N   UNL     1     -41.992  42.239  26.349  1.00  0.00    -0.275 N 
ATOM     27  C   UNL     1     -41.552  41.728  27.533  1.00  0.00     0.025 A 
ATOM     28  N   UNL     1     -43.287  41.974  26.097  1.00  0.00    -0.173 NA
ATOM     29  C   UNL     1     -42.638  41.096  28.096  1.00  0.00    -0.016 A 
ATOM     30  H   UNL     1     -40.536  41.862  27.877  1.00  0.00     0.084 H 
ATOM     31  H   UNL     1     -42.673  40.589  29.051  1.00  0.00     0.066 H 
BRANCH  26  32
ATOM     32  C   UNL     1     -41.229  43.008  25.396  1.00  0.00     0.030 C 
ATOM     33  H   UNL     1     -40.433  42.373  24.998  1.00  0.00     0.048 H 
ATOM     34  H   UNL     1     -41.885  43.337  24.586  1.00  0.00     0.048 H 
ATOM     35  H   UNL     1     -40.809  43.875  25.911  1.00  0.00     0.048 H 
ENDBRANCH  26  32
ENDBRANCH  15  25
BRANCH  20  36
ATOM     36  N   UNL     1     -45.706  43.618  25.844  1.00  0.00    -0.383 N 
ATOM     37  H   UNL     1     -44.767  43.280  25.666  1.00  0.00     0.158 HD
ATOM     38  H   UNL     1     -45.771  44.385  26.503  1.00  0.00     0.158 HD
ENDBRANCH  20  36
ENDBRANCH   5  14
BRANCH   9  39
ATOM     39  O   UNL     1     -49.578  36.296  28.876  1.00  0.00    -0.387 OA
ATOM     40  H   UNL     1     -49.463  35.666  29.611  1.00  0.00     0.211 HD
ENDBRANCH   9  39
ENDBRANCH   1   4
BRANCH   1  41
ATOM     41  O   UNL     1     -45.974  34.149  28.212  1.00  0.00    -0.491 OA
BRANCH  41  42
ATOM     42  C   UNL     1     -46.404  33.462  27.111  1.00  0.00     0.121 A 
ATOM     43  C   UNL     1     -46.163  34.108  25.899  1.00  0.00    -0.019 A 
ATOM     44  C   UNL     1     -47.033  32.217  27.106  1.00  0.00     0.007 A 
ATOM     45  C   UNL     1     -46.539  33.512  24.698  1.00  0.00    -0.049 A 
ATOM     46  H   UNL     1     -45.673  35.079  25.894  1.00  0.00     0.066 H 
ATOM     47  C   UNL     1     -47.417  31.597  25.922  1.00  0.00     0.076 A 
ATOM     48  H   UNL     1     -47.248  31.680  28.022  1.00  0.00     0.069 H 
ATOM     49  C   UNL     1     -47.164  32.256  24.704  1.00  0.00     0.001 A 
ATOM     50  H   UNL     1     -46.339  34.030  23.763  1.00  0.00     0.063 H 
ATOM     51  N   UNL     1     -48.011  30.392  25.980  1.00  0.00    -0.231 NA
ATOM     52  C   UNL     1     -47.551  31.617  23.525  1.00  0.00    -0.049 A 
ATOM     53  C   UNL     1     -48.390  29.783  24.833  1.00  0.00     0.129 A 
ATOM     54  C   UNL     1     -48.165  30.370  23.592  1.00  0.00    -0.019 A 
ATOM     55  H   UNL     1     -47.375  32.075  22.556  1.00  0.00     0.063 H 
ATOM     56  H   UNL     1     -48.455  29.863  22.678  1.00  0.00     0.066 H 
BRANCH  53  57
ATOM     57  N   UNL     1     -48.999  28.518  24.913  1.00  0.00    -0.353 N 
ATOM     58  C   UNL     1     -50.397  28.229  24.739  1.00  0.00     0.036 C 
ATOM     59  C   UNL     1     -48.882  27.630  26.040  1.00  0.00     0.036 C 
ATOM     60  C   UNL     1     -50.131  26.913  25.494  1.00  0.00     0.040 C 
ATOM     61  H   UNL     1     -50.683  28.117  23.689  1.00  0.00     0.051 H 
ATOM     62  H   UNL     1     -51.042  28.965  25.233  1.00  0.00     0.051 H 
ATOM     63  H   UNL     1     -47.958  27.046  26.025  1.00  0.00     0.051 H 
ATOM     64  H   UNL     1     -48.989  28.151  26.998  1.00  0.00     0.051 H 
ATOM     65  H   UNL     1     -49.938  26.042  24.861  1.00  0.00     0.050 H 
BRANCH  60  66
ATOM     66  N   UNL     1     -51.130  26.717  26.553  1.00  0.00    -0.325 NA
ATOM     67  H   UNL     1     -51.310  27.547  27.120  1.00  0.00     0.119 HD
ATOM     68  H   UNL     1     -50.878  25.982  27.214  1.00  0.00     0.119 HD
ENDBRANCH  60  66
ENDBRANCH  53  57
ENDBRANCH  41  42
ENDBRANCH   1  41
TORSDOF 10
ENDMDL
