MODEL 1
REMARK VINA RESULT:     -11.1      0.000      0.000
REMARK SMILES O=C(NCc1ccc2cc(CN3C[C@H]4C[C@@H]3C4)[nH]c2c1)c1cc(=O)n2ccccc2n1
REMARK SMILES IDX 5 1 6 2 7 3 8 4 9 5 10 6 18 7 19 8 20 9 4 15 3 18 1 19 2 20
REMARK SMILES IDX 21 22 22 23 31 24 23 25 30 27 24 28 25 29 29 30 26 31 28 32
REMARK SMILES IDX 27 34 11 38 12 41 13 42 16 43 14 44 17 47 15 48
REMARK H PARENT 6 10 7 11 9 12 18 13 20 14 4 16 4 17 3 21 22 26 29 33 26 35
REMARK H PARENT 28 36 27 37 11 39 11 40 13 45 13 46 16 49 14 50 17 51 17 52
REMARK H PARENT 15 53 15 54
REMARK Flexibility Score: inf
ROOT
ATOM      1  C   UNL     1     -47.918  34.942  26.533  1.00  0.00    -0.027 A 
ATOM      2  C   UNL     1     -46.722  34.848  25.810  1.00  0.00    -0.057 A 
ATOM      3  C   UNL     1     -46.370  33.666  25.143  1.00  0.00    -0.052 A 
ATOM      4  C   UNL     1     -47.238  32.559  25.195  1.00  0.00    -0.000 A 
ATOM      5  C   UNL     1     -47.203  31.248  24.650  1.00  0.00    -0.032 A 
ATOM      6  C   UNL     1     -48.364  30.595  25.023  1.00  0.00     0.030 A 
ATOM      7  N   UNL     1     -49.082  31.469  25.803  1.00  0.00    -0.357 N 
ATOM      8  C   UNL     1     -48.426  32.673  25.913  1.00  0.00     0.046 A 
ATOM      9  C   UNL     1     -48.794  33.844  26.587  1.00  0.00    -0.033 A 
ATOM     10  H   UNL     1     -46.046  35.698  25.756  1.00  0.00     0.063 H 
ATOM     11  H   UNL     1     -45.437  33.607  24.590  1.00  0.00     0.063 H 
ATOM     12  H   UNL     1     -46.415  30.826  24.040  1.00  0.00     0.065 H 
ATOM     13  H   UNL     1     -49.979  31.269  26.225  1.00  0.00     0.166 HD
ATOM     14  H   UNL     1     -49.734  33.907  27.131  1.00  0.00     0.065 H 
ENDROOT
BRANCH   1  15
ATOM     15  C   UNL     1     -48.296  36.230  27.223  1.00  0.00     0.043 C 
ATOM     16  H   UNL     1     -49.165  36.682  26.731  1.00  0.00     0.054 H 
ATOM     17  H   UNL     1     -48.576  36.039  28.264  1.00  0.00     0.054 H 
BRANCH  15  18
ATOM     18  N   UNL     1     -47.186  37.147  27.236  1.00  0.00    -0.347 N 
ATOM     19  O   UNL     1     -46.622  36.868  29.450  1.00  0.00    -0.268 OA
ATOM     20  C   UNL     1     -46.485  37.446  28.378  1.00  0.00     0.270 C 
ATOM     21  H   UNL     1     -47.058  37.784  26.457  1.00  0.00     0.164 HD
BRANCH  20  22
ATOM     22  C   UNL     1     -45.522  38.591  28.176  1.00  0.00     0.136 A 
ATOM     23  C   UNL     1     -45.686  39.317  27.069  1.00  0.00     0.035 A 
ATOM     24  N   UNL     1     -44.546  38.812  29.122  1.00  0.00    -0.225 NA
ATOM     25  C   UNL     1     -44.767  40.436  26.827  1.00  0.00     0.258 A 
ATOM     26  H   UNL     1     -46.455  39.132  26.330  1.00  0.00     0.071 H 
ATOM     27  C   UNL     1     -43.734  39.802  28.904  1.00  0.00     0.140 A 
ATOM     28  O   UNL     1     -44.911  41.111  25.809  1.00  0.00    -0.269 OA
ATOM     29  N   UNL     1     -43.792  40.636  27.793  1.00  0.00    -0.268 N 
ATOM     30  C   UNL     1     -42.660  40.076  29.900  1.00  0.00    -0.019 A 
ATOM     31  C   UNL     1     -42.883  41.677  27.633  1.00  0.00     0.014 A 
ATOM     32  C   UNL     1     -41.809  41.090  29.701  1.00  0.00    -0.057 A 
ATOM     33  H   UNL     1     -42.606  39.431  30.767  1.00  0.00     0.066 H 
ATOM     34  C   UNL     1     -41.921  41.919  28.532  1.00  0.00    -0.045 A 
ATOM     35  H   UNL     1     -42.987  42.290  26.741  1.00  0.00     0.082 H 
ATOM     36  H   UNL     1     -41.020  41.306  30.416  1.00  0.00     0.062 H 
ATOM     37  H   UNL     1     -41.218  42.734  28.397  1.00  0.00     0.064 H 
ENDBRANCH  20  22
ENDBRANCH  15  18
ENDBRANCH   1  15
BRANCH   6  38
ATOM     38  C   UNL     1     -48.842  29.210  24.752  1.00  0.00     0.039 C 
ATOM     39  H   UNL     1     -49.921  29.163  24.948  1.00  0.00     0.050 H 
ATOM     40  H   UNL     1     -48.741  29.005  23.679  1.00  0.00     0.050 H 
BRANCH  38  41
ATOM     41  N   UNL     1     -48.191  28.134  25.485  1.00  0.00    -0.294 NA
ATOM     42  C   UNL     1     -47.468  27.125  24.723  1.00  0.00     0.002 C 
ATOM     43  C   UNL     1     -49.056  27.312  26.351  1.00  0.00     0.011 C 
ATOM     44  C   UNL     1     -47.917  25.878  25.475  1.00  0.00    -0.026 C 
ATOM     45  H   UNL     1     -46.388  27.277  24.804  1.00  0.00     0.043 H 
ATOM     46  H   UNL     1     -47.740  27.065  23.665  1.00  0.00     0.043 H 
ATOM     47  C   UNL     1     -49.459  26.046  25.509  1.00  0.00    -0.033 C 
ATOM     48  C   UNL     1     -47.993  26.327  26.970  1.00  0.00    -0.033 C 
ATOM     49  H   UNL     1     -49.770  27.799  27.012  1.00  0.00     0.047 H 
ATOM     50  H   UNL     1     -47.497  24.904  25.230  1.00  0.00     0.032 H 
ATOM     51  H   UNL     1     -50.013  25.273  26.057  1.00  0.00     0.029 H 
ATOM     52  H   UNL     1     -49.955  26.185  24.546  1.00  0.00     0.029 H 
ATOM     53  H   UNL     1     -48.382  25.584  27.676  1.00  0.00     0.029 H 
ATOM     54  H   UNL     1     -47.089  26.772  27.401  1.00  0.00     0.029 H 
ENDBRANCH  38  41
ENDBRANCH   6  38
TORSDOF 5
ENDMDL
MODEL 2
REMARK VINA RESULT:     -10.4      2.311      3.382
REMARK SMILES O=C(NCc1ccc2cc(CN3C[C@H]4C[C@@H]3C4)[nH]c2c1)c1cc(=O)n2ccccc2n1
REMARK SMILES IDX 5 1 6 2 7 3 8 4 9 5 10 6 18 7 19 8 20 9 4 15 3 18 1 19 2 20
REMARK SMILES IDX 21 22 22 23 31 24 23 25 30 27 24 28 25 29 29 30 26 31 28 32
REMARK SMILES IDX 27 34 11 38 12 41 13 42 16 43 14 44 17 47 15 48
REMARK H PARENT 6 10 7 11 9 12 18 13 20 14 4 16 4 17 3 21 22 26 29 33 26 35
REMARK H PARENT 28 36 27 37 11 39 11 40 13 45 13 46 16 49 14 50 17 51 17 52
REMARK H PARENT 15 53 15 54
REMARK Flexibility Score: inf
ROOT
ATOM      1  C   UNL     1     -46.481  35.663  28.331  1.00  0.00    -0.027 A 
ATOM      2  C   UNL     1     -47.836  35.806  28.007  1.00  0.00    -0.057 A 
ATOM      3  C   UNL     1     -48.422  35.037  26.992  1.00  0.00    -0.052 A 
ATOM      4  C   UNL     1     -47.638  34.100  26.295  1.00  0.00    -0.000 A 
ATOM      5  C   UNL     1     -47.896  33.178  25.245  1.00  0.00    -0.032 A 
ATOM      6  C   UNL     1     -46.726  32.491  24.977  1.00  0.00     0.030 A 
ATOM      7  N   UNL     1     -45.763  32.997  25.817  1.00  0.00    -0.357 N 
ATOM      8  C   UNL     1     -46.294  33.967  26.635  1.00  0.00     0.046 A 
ATOM      9  C   UNL     1     -45.689  34.727  27.644  1.00  0.00    -0.033 A 
ATOM     10  H   UNL     1     -48.455  36.522  28.543  1.00  0.00     0.063 H 
ATOM     11  H   UNL     1     -49.474  35.162  26.750  1.00  0.00     0.063 H 
ATOM     12  H   UNL     1     -48.842  33.025  24.743  1.00  0.00     0.065 H 
ATOM     13  H   UNL     1     -44.800  32.690  25.848  1.00  0.00     0.166 HD
ATOM     14  H   UNL     1     -44.640  34.593  27.895  1.00  0.00     0.065 H 
ENDROOT
BRANCH   1  15
ATOM     15  C   UNL     1     -45.871  36.479  29.445  1.00  0.00     0.043 C 
ATOM     16  H   UNL     1     -46.655  36.863  30.106  1.00  0.00     0.054 H 
ATOM     17  H   UNL     1     -45.207  35.858  30.055  1.00  0.00     0.054 H 
BRANCH  15  18
ATOM     18  N   UNL     1     -45.081  37.560  28.913  1.00  0.00    -0.347 N 
ATOM     19  O   UNL     1     -44.417  38.438  30.934  1.00  0.00    -0.268 OA
ATOM     20  C   UNL     1     -44.477  38.499  29.712  1.00  0.00     0.270 C 
ATOM     21  H   UNL     1     -45.163  37.799  27.931  1.00  0.00     0.164 HD
BRANCH  20  22
ATOM     22  C   UNL     1     -43.900  39.645  28.914  1.00  0.00     0.136 A 
ATOM     23  C   UNL     1     -42.850  40.270  29.447  1.00  0.00     0.035 A 
ATOM     24  N   UNL     1     -44.484  39.975  27.712  1.00  0.00    -0.225 NA
ATOM     25  C   UNL     1     -42.262  41.395  28.710  1.00  0.00     0.258 A 
ATOM     26  H   UNL     1     -42.401  40.003  30.396  1.00  0.00     0.071 H 
ATOM     27  C   UNL     1     -43.963  40.972  27.064  1.00  0.00     0.140 A 
ATOM     28  O   UNL     1     -41.292  41.978  29.194  1.00  0.00    -0.269 OA
ATOM     29  N   UNL     1     -42.869  41.710  27.503  1.00  0.00    -0.268 N 
ATOM     30  C   UNL     1     -44.564  41.367  25.759  1.00  0.00    -0.019 A 
ATOM     31  C   UNL     1     -42.368  42.766  26.748  1.00  0.00     0.014 A 
ATOM     32  C   UNL     1     -44.046  42.391  25.068  1.00  0.00    -0.057 A 
ATOM     33  H   UNL     1     -45.416  40.800  25.409  1.00  0.00     0.066 H 
ATOM     34  C   UNL     1     -42.913  43.115  25.576  1.00  0.00    -0.045 A 
ATOM     35  H   UNL     1     -41.511  43.298  27.152  1.00  0.00     0.082 H 
ATOM     36  H   UNL     1     -44.471  42.694  24.116  1.00  0.00     0.062 H 
ATOM     37  H   UNL     1     -42.514  43.940  24.995  1.00  0.00     0.064 H 
ENDBRANCH  20  22
ENDBRANCH  15  18
ENDBRANCH   1  15
BRANCH   6  38
ATOM     38  C   UNL     1     -46.416  31.433  23.974  1.00  0.00     0.039 C 
ATOM     39  H   UNL     1     -46.298  31.903  22.988  1.00  0.00     0.050 H 
ATOM     40  H   UNL     1     -45.431  31.007  24.203  1.00  0.00     0.050 H 
BRANCH  38  41
ATOM     41  N   UNL     1     -47.370  30.341  23.855  1.00  0.00    -0.294 NA
ATOM     42  C   UNL     1     -46.881  29.053  23.381  1.00  0.00     0.002 C 
ATOM     43  C   UNL     1     -48.532  30.576  22.979  1.00  0.00     0.011 C 
ATOM     44  C   UNL     1     -48.022  28.687  22.439  1.00  0.00    -0.026 C 
ATOM     45  H   UNL     1     -46.797  28.341  24.208  1.00  0.00     0.043 H 
ATOM     46  H   UNL     1     -45.927  29.091  22.847  1.00  0.00     0.043 H 
ATOM     47  C   UNL     1     -48.166  29.968  21.576  1.00  0.00    -0.033 C 
ATOM     48  C   UNL     1     -49.307  29.215  23.155  1.00  0.00    -0.033 C 
ATOM     49  H   UNL     1     -49.084  31.510  23.061  1.00  0.00     0.047 H 
ATOM     50  H   UNL     1     -48.044  27.715  21.950  1.00  0.00     0.032 H 
ATOM     51  H   UNL     1     -48.979  29.960  20.839  1.00  0.00     0.029 H 
ATOM     52  H   UNL     1     -47.265  30.314  21.066  1.00  0.00     0.029 H 
ATOM     53  H   UNL     1     -50.243  29.121  22.593  1.00  0.00     0.029 H 
ATOM     54  H   UNL     1     -49.483  28.867  24.180  1.00  0.00     0.029 H 
ENDBRANCH  38  41
ENDBRANCH   6  38
TORSDOF 5
ENDMDL
MODEL 3
REMARK VINA RESULT:     -10.3      1.843      2.780
REMARK SMILES O=C(NCc1ccc2cc(CN3C[C@H]4C[C@@H]3C4)[nH]c2c1)c1cc(=O)n2ccccc2n1
REMARK SMILES IDX 5 1 6 2 7 3 8 4 9 5 10 6 18 7 19 8 20 9 4 15 3 18 1 19 2 20
REMARK SMILES IDX 21 22 22 23 31 24 23 25 30 27 24 28 25 29 29 30 26 31 28 32
REMARK SMILES IDX 27 34 11 38 12 41 13 42 16 43 14 44 17 47 15 48
REMARK H PARENT 6 10 7 11 9 12 18 13 20 14 4 16 4 17 3 21 22 26 29 33 26 35
REMARK H PARENT 28 36 27 37 11 39 11 40 13 45 13 46 16 49 14 50 17 51 17 52
REMARK H PARENT 15 53 15 54
REMARK Flexibility Score: inf
ROOT
ATOM      1  C   UNL     1     -47.810  34.811  26.646  1.00  0.00    -0.027 A 
ATOM      2  C   UNL     1     -46.536  34.673  26.080  1.00  0.00    -0.057 A 
ATOM      3  C   UNL     1     -46.222  33.582  25.259  1.00  0.00    -0.052 A 
ATOM      4  C   UNL     1     -47.208  32.614  24.990  1.00  0.00    -0.000 A 
ATOM      5  C   UNL     1     -47.239  31.419  24.222  1.00  0.00    -0.032 A 
ATOM      6  C   UNL     1     -48.510  30.881  24.313  1.00  0.00     0.030 A 
ATOM      7  N   UNL     1     -49.235  31.705  25.140  1.00  0.00    -0.357 N 
ATOM      8  C   UNL     1     -48.471  32.770  25.555  1.00  0.00     0.046 A 
ATOM      9  C   UNL     1     -48.803  33.852  26.380  1.00  0.00    -0.033 A 
ATOM     10  H   UNL     1     -45.767  35.418  26.274  1.00  0.00     0.063 H 
ATOM     11  H   UNL     1     -45.228  33.487  24.831  1.00  0.00     0.063 H 
ATOM     12  H   UNL     1     -46.420  31.000  23.653  1.00  0.00     0.065 H 
ATOM     13  H   UNL     1     -50.204  31.563  25.396  1.00  0.00     0.166 HD
ATOM     14  H   UNL     1     -49.802  33.953  26.799  1.00  0.00     0.065 H 
ENDROOT
BRANCH   1  15
ATOM     15  C   UNL     1     -48.141  36.006  27.506  1.00  0.00     0.043 C 
ATOM     16  H   UNL     1     -49.077  36.466  27.171  1.00  0.00     0.054 H 
ATOM     17  H   UNL     1     -48.284  35.699  28.548  1.00  0.00     0.054 H 
BRANCH  15  18
ATOM     18  N   UNL     1     -47.067  36.965  27.483  1.00  0.00    -0.347 N 
ATOM     19  O   UNL     1     -46.544  36.850  29.721  1.00  0.00    -0.268 OA
ATOM     20  C   UNL     1     -46.403  37.363  28.618  1.00  0.00     0.270 C 
ATOM     21  H   UNL     1     -46.945  37.555  26.667  1.00  0.00     0.164 HD
BRANCH  20  22
ATOM     22  C   UNL     1     -45.480  38.530  28.362  1.00  0.00     0.136 A 
ATOM     23  C   UNL     1     -45.712  39.240  27.256  1.00  0.00     0.035 A 
ATOM     24  N   UNL     1     -44.469  38.786  29.261  1.00  0.00    -0.225 NA
ATOM     25  C   UNL     1     -44.834  40.379  26.963  1.00  0.00     0.258 A 
ATOM     26  H   UNL     1     -46.508  39.027  26.554  1.00  0.00     0.071 H 
ATOM     27  C   UNL     1     -43.694  39.793  28.998  1.00  0.00     0.140 A 
ATOM     28  O   UNL     1     -45.041  41.039  25.946  1.00  0.00    -0.269 OA
ATOM     29  N   UNL     1     -43.822  40.614  27.882  1.00  0.00    -0.268 N 
ATOM     30  C   UNL     1     -42.584  40.105  29.942  1.00  0.00    -0.019 A 
ATOM     31  C   UNL     1     -42.948  41.676  27.672  1.00  0.00     0.014 A 
ATOM     32  C   UNL     1     -41.768  41.138  29.695  1.00  0.00    -0.057 A 
ATOM     33  H   UNL     1     -42.474  39.471  30.812  1.00  0.00     0.066 H 
ATOM     34  C   UNL     1     -41.954  41.951  28.524  1.00  0.00    -0.045 A 
ATOM     35  H   UNL     1     -43.108  42.276  26.779  1.00  0.00     0.082 H 
ATOM     36  H   UNL     1     -40.954  41.381  30.372  1.00  0.00     0.062 H 
ATOM     37  H   UNL     1     -41.278  42.782  28.350  1.00  0.00     0.064 H 
ENDBRANCH  20  22
ENDBRANCH  15  18
ENDBRANCH   1  15
BRANCH   6  38
ATOM     38  C   UNL     1     -49.096  29.641  23.729  1.00  0.00     0.039 C 
ATOM     39  H   UNL     1     -48.381  28.817  23.858  1.00  0.00     0.050 H 
ATOM     40  H   UNL     1     -49.971  29.351  24.323  1.00  0.00     0.050 H 
BRANCH  38  41
ATOM     41  N   UNL     1     -49.491  29.697  22.330  1.00  0.00    -0.294 NA
ATOM     42  C   UNL     1     -48.652  30.455  21.410  1.00  0.00     0.002 C 
ATOM     43  C   UNL     1     -50.832  30.238  22.047  1.00  0.00     0.011 C 
ATOM     44  C   UNL     1     -49.739  31.152  20.602  1.00  0.00    -0.026 C 
ATOM     45  H   UNL     1     -48.054  29.783  20.787  1.00  0.00     0.043 H 
ATOM     46  H   UNL     1     -47.988  31.182  21.887  1.00  0.00     0.043 H 
ATOM     47  C   UNL     1     -50.639  31.762  21.709  1.00  0.00    -0.033 C 
ATOM     48  C   UNL     1     -50.879  30.090  20.479  1.00  0.00    -0.033 C 
ATOM     49  H   UNL     1     -51.683  29.894  22.633  1.00  0.00     0.047 H 
ATOM     50  H   UNL     1     -49.479  31.760  19.738  1.00  0.00     0.032 H 
ATOM     51  H   UNL     1     -51.539  32.285  21.360  1.00  0.00     0.029 H 
ATOM     52  H   UNL     1     -50.145  32.408  22.436  1.00  0.00     0.029 H 
ATOM     53  H   UNL     1     -51.801  30.430  19.993  1.00  0.00     0.029 H 
ATOM     54  H   UNL     1     -50.606  29.116  20.059  1.00  0.00     0.029 H 
ENDBRANCH  38  41
ENDBRANCH   6  38
TORSDOF 5
ENDMDL
MODEL 4
REMARK VINA RESULT:     -10.2      2.012      2.647
REMARK SMILES O=C(NCc1ccc2cc(CN3C[C@H]4C[C@@H]3C4)[nH]c2c1)c1cc(=O)n2ccccc2n1
REMARK SMILES IDX 5 1 6 2 7 3 8 4 9 5 10 6 18 7 19 8 20 9 4 15 3 18 1 19 2 20
REMARK SMILES IDX 21 22 22 23 31 24 23 25 30 27 24 28 25 29 29 30 26 31 28 32
REMARK SMILES IDX 27 34 11 38 12 41 13 42 16 43 14 44 17 47 15 48
REMARK H PARENT 6 10 7 11 9 12 18 13 20 14 4 16 4 17 3 21 22 26 29 33 26 35
REMARK H PARENT 28 36 27 37 11 39 11 40 13 45 13 46 16 49 14 50 17 51 17 52
REMARK H PARENT 15 53 15 54
REMARK Flexibility Score: inf
ROOT
ATOM      1  C   UNL     1     -47.846  36.317  27.280  1.00  0.00    -0.027 A 
ATOM      2  C   UNL     1     -46.481  36.050  27.113  1.00  0.00    -0.057 A 
ATOM      3  C   UNL     1     -46.037  34.794  26.677  1.00  0.00    -0.052 A 
ATOM      4  C   UNL     1     -46.979  33.789  26.393  1.00  0.00    -0.000 A 
ATOM      5  C   UNL     1     -46.888  32.445  25.941  1.00  0.00    -0.032 A 
ATOM      6  C   UNL     1     -48.170  31.942  25.821  1.00  0.00     0.030 A 
ATOM      7  N   UNL     1     -49.030  32.938  26.217  1.00  0.00    -0.357 N 
ATOM      8  C   UNL     1     -48.332  34.074  26.558  1.00  0.00     0.046 A 
ATOM      9  C   UNL     1     -48.796  35.321  26.995  1.00  0.00    -0.033 A 
ATOM     10  H   UNL     1     -45.742  36.821  27.322  1.00  0.00     0.063 H 
ATOM     11  H   UNL     1     -44.974  34.602  26.556  1.00  0.00     0.063 H 
ATOM     12  H   UNL     1     -45.978  31.903  25.719  1.00  0.00     0.065 H 
ATOM     13  H   UNL     1     -50.038  32.861  26.238  1.00  0.00     0.166 HD
ATOM     14  H   UNL     1     -49.859  35.518  27.104  1.00  0.00     0.065 H 
ENDROOT
BRANCH   1  15
ATOM     15  C   UNL     1     -48.310  37.682  27.724  1.00  0.00     0.043 C 
ATOM     16  H   UNL     1     -49.051  38.078  27.020  1.00  0.00     0.054 H 
ATOM     17  H   UNL     1     -48.794  37.622  28.704  1.00  0.00     0.054 H 
BRANCH  15  18
ATOM     18  N   UNL     1     -47.195  38.586  27.848  1.00  0.00    -0.347 N 
ATOM     19  O   UNL     1     -47.609  39.802  25.938  1.00  0.00    -0.268 OA
ATOM     20  C   UNL     1     -46.895  39.529  26.896  1.00  0.00     0.270 C 
ATOM     21  H   UNL     1     -46.460  38.379  28.516  1.00  0.00     0.164 HD
BRANCH  20  22
ATOM     22  C   UNL     1     -45.563  40.194  27.149  1.00  0.00     0.136 A 
ATOM     23  C   UNL     1     -45.164  41.088  26.242  1.00  0.00     0.035 A 
ATOM     24  N   UNL     1     -44.848  39.842  28.272  1.00  0.00    -0.225 NA
ATOM     25  C   UNL     1     -43.871  41.753  26.442  1.00  0.00     0.258 A 
ATOM     26  H   UNL     1     -45.734  41.354  25.361  1.00  0.00     0.071 H 
ATOM     27  C   UNL     1     -43.705  40.432  28.445  1.00  0.00     0.140 A 
ATOM     28  O   UNL     1     -43.496  42.579  25.612  1.00  0.00    -0.269 OA
ATOM     29  N   UNL     1     -43.170  41.380  27.580  1.00  0.00    -0.268 N 
ATOM     30  C   UNL     1     -42.895  40.080  29.645  1.00  0.00    -0.019 A 
ATOM     31  C   UNL     1     -41.935  41.967  27.837  1.00  0.00     0.014 A 
ATOM     32  C   UNL     1     -41.712  40.672  29.849  1.00  0.00    -0.057 A 
ATOM     33  H   UNL     1     -43.302  39.342  30.324  1.00  0.00     0.066 H 
ATOM     34  C   UNL     1     -41.213  41.647  28.917  1.00  0.00    -0.045 A 
ATOM     35  H   UNL     1     -41.578  42.701  27.118  1.00  0.00     0.082 H 
ATOM     36  H   UNL     1     -41.107  40.428  30.718  1.00  0.00     0.062 H 
ATOM     37  H   UNL     1     -40.251  42.111  29.108  1.00  0.00     0.064 H 
ENDBRANCH  20  22
ENDBRANCH  15  18
ENDBRANCH   1  15
BRANCH   6  38
ATOM     38  C   UNL     1     -48.664  30.597  25.409  1.00  0.00     0.039 C 
ATOM     39  H   UNL     1     -48.033  29.830  25.876  1.00  0.00     0.050 H 
ATOM     40  H   UNL     1     -49.662  30.441  25.836  1.00  0.00     0.050 H 
BRANCH  38  41
ATOM     41  N   UNL     1     -48.733  30.333  23.980  1.00  0.00    -0.294 NA
ATOM     42  C   UNL     1     -48.615  28.951  23.532  1.00  0.00     0.002 C 
ATOM     43  C   UNL     1     -47.739  31.020  23.135  1.00  0.00     0.011 C 
ATOM     44  C   UNL     1     -47.701  29.157  22.330  1.00  0.00    -0.026 C 
ATOM     45  H   UNL     1     -49.590  28.555  23.233  1.00  0.00     0.043 H 
ATOM     46  H   UNL     1     -48.162  28.269  24.258  1.00  0.00     0.043 H 
ATOM     47  C   UNL     1     -46.551  30.011  22.928  1.00  0.00    -0.033 C 
ATOM     48  C   UNL     1     -48.171  30.512  21.708  1.00  0.00    -0.033 C 
ATOM     49  H   UNL     1     -47.556  32.083  23.281  1.00  0.00     0.047 H 
ATOM     50  H   UNL     1     -47.455  28.324  21.675  1.00  0.00     0.032 H 
ATOM     51  H   UNL     1     -45.777  30.333  22.220  1.00  0.00     0.029 H 
ATOM     52  H   UNL     1     -46.045  29.600  23.803  1.00  0.00     0.029 H 
ATOM     53  H   UNL     1     -47.577  30.885  20.866  1.00  0.00     0.029 H 
ATOM     54  H   UNL     1     -49.232  30.595  21.445  1.00  0.00     0.029 H 
ENDBRANCH  38  41
ENDBRANCH   6  38
TORSDOF 5
ENDMDL
MODEL 5
REMARK VINA RESULT:     -10.0      1.585      2.417
REMARK SMILES O=C(NCc1ccc2cc(CN3C[C@H]4C[C@@H]3C4)[nH]c2c1)c1cc(=O)n2ccccc2n1
REMARK SMILES IDX 5 1 6 2 7 3 8 4 9 5 10 6 18 7 19 8 20 9 4 15 3 18 1 19 2 20
REMARK SMILES IDX 21 22 22 23 31 24 23 25 30 27 24 28 25 29 29 30 26 31 28 32
REMARK SMILES IDX 27 34 11 38 12 41 13 42 16 43 14 44 17 47 15 48
REMARK H PARENT 6 10 7 11 9 12 18 13 20 14 4 16 4 17 3 21 22 26 29 33 26 35
REMARK H PARENT 28 36 27 37 11 39 11 40 13 45 13 46 16 49 14 50 17 51 17 52
REMARK H PARENT 15 53 15 54
REMARK Flexibility Score: inf
ROOT
ATOM      1  C   UNL     1     -48.208  33.528  25.935  1.00  0.00    -0.027 A 
ATOM      2  C   UNL     1     -46.876  33.539  25.501  1.00  0.00    -0.057 A 
ATOM      3  C   UNL     1     -46.342  32.465  24.775  1.00  0.00    -0.052 A 
ATOM      4  C   UNL     1     -47.162  31.363  24.469  1.00  0.00    -0.000 A 
ATOM      5  C   UNL     1     -46.961  30.143  23.769  1.00  0.00    -0.032 A 
ATOM      6  C   UNL     1     -48.154  29.444  23.770  1.00  0.00     0.030 A 
ATOM      7  N   UNL     1     -49.060  30.197  24.478  1.00  0.00    -0.357 N 
ATOM      8  C   UNL     1     -48.486  31.373  24.903  1.00  0.00     0.046 A 
ATOM      9  C   UNL     1     -49.037  32.434  25.631  1.00  0.00    -0.033 A 
ATOM     10  H   UNL     1     -46.233  34.388  25.725  1.00  0.00     0.063 H 
ATOM     11  H   UNL     1     -45.307  32.487  24.448  1.00  0.00     0.063 H 
ATOM     12  H   UNL     1     -46.041  29.814  23.305  1.00  0.00     0.065 H 
ATOM     13  H   UNL     1     -50.023  29.938  24.649  1.00  0.00     0.166 HD
ATOM     14  H   UNL     1     -50.077  32.419  25.947  1.00  0.00     0.065 H 
ENDROOT
BRANCH   1  15
ATOM     15  C   UNL     1     -48.775  34.704  26.693  1.00  0.00     0.043 C 
ATOM     16  H   UNL     1     -49.501  35.240  26.072  1.00  0.00     0.054 H 
ATOM     17  H   UNL     1     -49.304  34.363  27.589  1.00  0.00     0.054 H 
BRANCH  15  18
ATOM     18  N   UNL     1     -47.724  35.590  27.123  1.00  0.00    -0.347 N 
ATOM     19  O   UNL     1     -48.749  36.321  29.050  1.00  0.00    -0.268 OA
ATOM     20  C   UNL     1     -47.835  36.385  28.237  1.00  0.00     0.270 C 
ATOM     21  H   UNL     1     -46.983  35.833  26.475  1.00  0.00     0.164 HD
BRANCH  20  22
ATOM     22  C   UNL     1     -46.701  37.377  28.348  1.00  0.00     0.136 A 
ATOM     23  C   UNL     1     -45.955  37.305  29.451  1.00  0.00     0.035 A 
ATOM     24  N   UNL     1     -46.512  38.284  27.329  1.00  0.00    -0.225 NA
ATOM     25  C   UNL     1     -44.847  38.255  29.605  1.00  0.00     0.258 A 
ATOM     26  H   UNL     1     -46.116  36.589  30.247  1.00  0.00     0.071 H 
ATOM     27  C   UNL     1     -45.532  39.124  27.470  1.00  0.00     0.140 A 
ATOM     28  O   UNL     1     -44.153  38.196  30.619  1.00  0.00    -0.269 OA
ATOM     29  N   UNL     1     -44.678  39.160  28.567  1.00  0.00    -0.268 N 
ATOM     30  C   UNL     1     -45.291  40.126  26.393  1.00  0.00    -0.019 A 
ATOM     31  C   UNL     1     -43.649  40.093  28.642  1.00  0.00     0.014 A 
ATOM     32  C   UNL     1     -44.288  41.004  26.511  1.00  0.00    -0.057 A 
ATOM     33  H   UNL     1     -45.951  40.107  25.536  1.00  0.00     0.066 H 
ATOM     34  C   UNL     1     -43.438  40.990  27.671  1.00  0.00    -0.045 A 
ATOM     35  H   UNL     1     -43.020  40.063  29.528  1.00  0.00     0.082 H 
ATOM     36  H   UNL     1     -44.097  41.742  25.738  1.00  0.00     0.062 H 
ATOM     37  H   UNL     1     -42.632  41.713  27.740  1.00  0.00     0.064 H 
ENDBRANCH  20  22
ENDBRANCH  15  18
ENDBRANCH   1  15
BRANCH   6  38
ATOM     38  C   UNL     1     -48.513  28.113  23.204  1.00  0.00     0.039 C 
ATOM     39  H   UNL     1     -49.334  28.241  22.487  1.00  0.00     0.050 H 
ATOM     40  H   UNL     1     -47.670  27.744  22.605  1.00  0.00     0.050 H 
BRANCH  38  41
ATOM     41  N   UNL     1     -48.886  27.075  24.153  1.00  0.00    -0.294 NA
ATOM     42  C   UNL     1     -50.162  27.204  24.844  1.00  0.00     0.002 C 
ATOM     43  C   UNL     1     -47.951  26.835  25.267  1.00  0.00     0.011 C 
ATOM     44  C   UNL     1     -49.729  26.788  26.245  1.00  0.00    -0.026 C 
ATOM     45  H   UNL     1     -50.901  26.512  24.429  1.00  0.00     0.043 H 
ATOM     46  H   UNL     1     -50.583  28.214  24.847  1.00  0.00     0.043 H 
ATOM     47  C   UNL     1     -48.480  27.677  26.486  1.00  0.00    -0.033 C 
ATOM     48  C   UNL     1     -48.680  25.653  26.010  1.00  0.00    -0.033 C 
ATOM     49  H   UNL     1     -46.885  26.750  25.063  1.00  0.00     0.047 H 
ATOM     50  H   UNL     1     -50.463  26.681  27.041  1.00  0.00     0.032 H 
ATOM     51  H   UNL     1     -47.953  27.515  27.435  1.00  0.00     0.029 H 
ATOM     52  H   UNL     1     -48.620  28.753  26.367  1.00  0.00     0.029 H 
ATOM     53  H   UNL     1     -48.180  25.268  26.906  1.00  0.00     0.029 H 
ATOM     54  H   UNL     1     -49.000  24.800  25.400  1.00  0.00     0.029 H 
ENDBRANCH  38  41
ENDBRANCH   6  38
TORSDOF 5
ENDMDL
MODEL 6
REMARK VINA RESULT:      -9.9      2.344      3.482
REMARK SMILES O=C(NCc1ccc2cc(CN3C[C@H]4C[C@@H]3C4)[nH]c2c1)c1cc(=O)n2ccccc2n1
REMARK SMILES IDX 5 1 6 2 7 3 8 4 9 5 10 6 18 7 19 8 20 9 4 15 3 18 1 19 2 20
REMARK SMILES IDX 21 22 22 23 31 24 23 25 30 27 24 28 25 29 29 30 26 31 28 32
REMARK SMILES IDX 27 34 11 38 12 41 13 42 16 43 14 44 17 47 15 48
REMARK H PARENT 6 10 7 11 9 12 18 13 20 14 4 16 4 17 3 21 22 26 29 33 26 35
REMARK H PARENT 28 36 27 37 11 39 11 40 13 45 13 46 16 49 14 50 17 51 17 52
REMARK H PARENT 15 53 15 54
REMARK Flexibility Score: inf
ROOT
ATOM      1  C   UNL     1     -47.462  36.734  27.659  1.00  0.00    -0.027 A 
ATOM      2  C   UNL     1     -46.115  36.350  27.668  1.00  0.00    -0.057 A 
ATOM      3  C   UNL     1     -45.723  35.072  27.246  1.00  0.00    -0.052 A 
ATOM      4  C   UNL     1     -46.700  34.163  26.798  1.00  0.00    -0.000 A 
ATOM      5  C   UNL     1     -46.663  32.830  26.309  1.00  0.00    -0.032 A 
ATOM      6  C   UNL     1     -47.955  32.448  25.996  1.00  0.00     0.030 A 
ATOM      7  N   UNL     1     -48.772  33.507  26.312  1.00  0.00    -0.357 N 
ATOM      8  C   UNL     1     -48.034  34.564  26.790  1.00  0.00     0.046 A 
ATOM      9  C   UNL     1     -48.445  35.836  27.209  1.00  0.00    -0.033 A 
ATOM     10  H   UNL     1     -45.349  37.045  28.006  1.00  0.00     0.063 H 
ATOM     11  H   UNL     1     -44.675  34.787  27.263  1.00  0.00     0.063 H 
ATOM     12  H   UNL     1     -45.781  32.214  26.189  1.00  0.00     0.065 H 
ATOM     13  H   UNL     1     -49.777  33.520  26.193  1.00  0.00     0.166 HD
ATOM     14  H   UNL     1     -49.493  36.125  27.181  1.00  0.00     0.065 H 
ENDROOT
BRANCH   1  15
ATOM     15  C   UNL     1     -47.864  38.123  28.091  1.00  0.00     0.043 C 
ATOM     16  H   UNL     1     -48.764  38.441  27.553  1.00  0.00     0.054 H 
ATOM     17  H   UNL     1     -48.103  38.137  29.160  1.00  0.00     0.054 H 
BRANCH  15  18
ATOM     18  N   UNL     1     -46.789  39.056  27.876  1.00  0.00    -0.347 N 
ATOM     19  O   UNL     1     -47.787  40.244  26.177  1.00  0.00    -0.268 OA
ATOM     20  C   UNL     1     -46.813  39.999  26.878  1.00  0.00     0.270 C 
ATOM     21  H   UNL     1     -45.882  38.875  28.294  1.00  0.00     0.164 HD
BRANCH  20  22
ATOM     22  C   UNL     1     -45.486  40.702  26.721  1.00  0.00     0.136 A 
ATOM     23  C   UNL     1     -44.581  40.482  27.676  1.00  0.00     0.035 A 
ATOM     24  N   UNL     1     -45.292  41.517  25.628  1.00  0.00    -0.225 NA
ATOM     25  C   UNL     1     -43.279  41.152  27.569  1.00  0.00     0.258 A 
ATOM     26  H   UNL     1     -44.745  39.841  28.533  1.00  0.00     0.071 H 
ATOM     27  C   UNL     1     -44.141  42.109  25.538  1.00  0.00     0.140 A 
ATOM     28  O   UNL     1     -42.438  40.954  28.445  1.00  0.00    -0.269 OA
ATOM     29  N   UNL     1     -43.109  41.969  26.461  1.00  0.00    -0.268 N 
ATOM     30  C   UNL     1     -43.887  43.003  24.373  1.00  0.00    -0.019 A 
ATOM     31  C   UNL     1     -41.902  42.638  26.291  1.00  0.00     0.014 A 
ATOM     32  C   UNL     1     -42.708  43.627  24.253  1.00  0.00    -0.057 A 
ATOM     33  H   UNL     1     -44.684  43.120  23.650  1.00  0.00     0.066 H 
ATOM     34  C   UNL     1     -41.681  43.440  25.242  1.00  0.00    -0.045 A 
ATOM     35  H   UNL     1     -41.140  42.482  27.051  1.00  0.00     0.082 H 
ATOM     36  H   UNL     1     -42.505  44.282  23.412  1.00  0.00     0.062 H 
ATOM     37  H   UNL     1     -40.735  43.957  25.119  1.00  0.00     0.064 H 
ENDBRANCH  20  22
ENDBRANCH  15  18
ENDBRANCH   1  15
BRANCH   6  38
ATOM     38  C   UNL     1     -48.499  31.166  25.467  1.00  0.00     0.039 C 
ATOM     39  H   UNL     1     -48.045  30.333  26.020  1.00  0.00     0.050 H 
ATOM     40  H   UNL     1     -49.569  31.112  25.705  1.00  0.00     0.050 H 
BRANCH  38  41
ATOM     41  N   UNL     1     -48.335  30.920  24.043  1.00  0.00    -0.294 NA
ATOM     42  C   UNL     1     -49.240  29.974  23.401  1.00  0.00     0.002 C 
ATOM     43  C   UNL     1     -47.014  30.431  23.608  1.00  0.00     0.011 C 
ATOM     44  C   UNL     1     -48.241  29.233  22.522  1.00  0.00    -0.026 C 
ATOM     45  H   UNL     1     -49.991  30.500  22.804  1.00  0.00     0.043 H 
ATOM     46  H   UNL     1     -49.747  29.287  24.085  1.00  0.00     0.043 H 
ATOM     47  C   UNL     1     -47.119  28.864  23.529  1.00  0.00    -0.033 C 
ATOM     48  C   UNL     1     -47.238  30.336  22.051  1.00  0.00    -0.033 C 
ATOM     49  H   UNL     1     -46.114  30.917  23.981  1.00  0.00     0.047 H 
ATOM     50  H   UNL     1     -48.581  28.482  21.812  1.00  0.00     0.032 H 
ATOM     51  H   UNL     1     -46.244  28.354  23.105  1.00  0.00     0.029 H 
ATOM     52  H   UNL     1     -47.426  28.307  24.416  1.00  0.00     0.029 H 
ATOM     53  H   UNL     1     -46.381  29.987  21.464  1.00  0.00     0.029 H 
ATOM     54  H   UNL     1     -47.664  31.213  21.552  1.00  0.00     0.029 H 
ENDBRANCH  38  41
ENDBRANCH   6  38
TORSDOF 5
ENDMDL
MODEL 7
REMARK VINA RESULT:      -9.9      1.551      2.269
REMARK SMILES O=C(NCc1ccc2cc(CN3C[C@H]4C[C@@H]3C4)[nH]c2c1)c1cc(=O)n2ccccc2n1
REMARK SMILES IDX 5 1 6 2 7 3 8 4 9 5 10 6 18 7 19 8 20 9 4 15 3 18 1 19 2 20
REMARK SMILES IDX 21 22 22 23 31 24 23 25 30 27 24 28 25 29 29 30 26 31 28 32
REMARK SMILES IDX 27 34 11 38 12 41 13 42 16 43 14 44 17 47 15 48
REMARK H PARENT 6 10 7 11 9 12 18 13 20 14 4 16 4 17 3 21 22 26 29 33 26 35
REMARK H PARENT 28 36 27 37 11 39 11 40 13 45 13 46 16 49 14 50 17 51 17 52
REMARK H PARENT 15 53 15 54
REMARK Flexibility Score: inf
ROOT
ATOM      1  C   UNL     1     -47.573  35.921  27.054  1.00  0.00    -0.027 A 
ATOM      2  C   UNL     1     -46.294  35.577  26.600  1.00  0.00    -0.057 A 
ATOM      3  C   UNL     1     -46.050  34.336  25.994  1.00  0.00    -0.052 A 
ATOM      4  C   UNL     1     -47.112  33.427  25.832  1.00  0.00    -0.000 A 
ATOM      5  C   UNL     1     -47.223  32.125  25.275  1.00  0.00    -0.032 A 
ATOM      6  C   UNL     1     -48.543  31.724  25.377  1.00  0.00     0.030 A 
ATOM      7  N   UNL     1     -49.222  32.739  26.008  1.00  0.00    -0.357 N 
ATOM      8  C   UNL     1     -48.378  33.789  26.284  1.00  0.00     0.046 A 
ATOM      9  C   UNL     1     -48.641  35.022  26.893  1.00  0.00    -0.033 A 
ATOM     10  H   UNL     1     -45.466  36.274  26.713  1.00  0.00     0.063 H 
ATOM     11  H   UNL     1     -45.051  34.082  25.651  1.00  0.00     0.063 H 
ATOM     12  H   UNL     1     -46.423  31.543  24.837  1.00  0.00     0.065 H 
ATOM     13  H   UNL     1     -50.211  32.729  26.223  1.00  0.00     0.166 HD
ATOM     14  H   UNL     1     -49.643  35.281  27.226  1.00  0.00     0.065 H 
ENDROOT
BRANCH   1  15
ATOM     15  C   UNL     1     -47.825  37.272  27.680  1.00  0.00     0.043 C 
ATOM     16  H   UNL     1     -48.746  37.709  27.277  1.00  0.00     0.054 H 
ATOM     17  H   UNL     1     -47.959  37.173  28.762  1.00  0.00     0.054 H 
BRANCH  15  18
ATOM     18  N   UNL     1     -46.707  38.153  27.461  1.00  0.00    -0.347 N 
ATOM     19  O   UNL     1     -45.876  38.083  29.607  1.00  0.00    -0.268 OA
ATOM     20  C   UNL     1     -45.864  38.544  28.472  1.00  0.00     0.270 C 
ATOM     21  H   UNL     1     -46.666  38.703  26.611  1.00  0.00     0.164 HD
BRANCH  20  22
ATOM     22  C   UNL     1     -44.915  39.635  28.036  1.00  0.00     0.136 A 
ATOM     23  C   UNL     1     -43.892  39.894  28.852  1.00  0.00     0.035 A 
ATOM     24  N   UNL     1     -45.159  40.291  26.849  1.00  0.00    -0.225 NA
ATOM     25  C   UNL     1     -42.949  40.953  28.472  1.00  0.00     0.258 A 
ATOM     26  H   UNL     1     -43.712  39.374  29.784  1.00  0.00     0.071 H 
ATOM     27  C   UNL     1     -44.323  41.227  26.517  1.00  0.00     0.140 A 
ATOM     28  O   UNL     1     -42.002  41.198  29.218  1.00  0.00    -0.269 OA
ATOM     29  N   UNL     1     -43.217  41.600  27.274  1.00  0.00    -0.268 N 
ATOM     30  C   UNL     1     -44.549  41.966  25.243  1.00  0.00    -0.019 A 
ATOM     31  C   UNL     1     -42.368  42.616  26.847  1.00  0.00     0.014 A 
ATOM     32  C   UNL     1     -43.704  42.937  24.875  1.00  0.00    -0.057 A 
ATOM     33  H   UNL     1     -45.408  41.685  24.648  1.00  0.00     0.066 H 
ATOM     34  C   UNL     1     -42.577  43.275  25.701  1.00  0.00    -0.045 A 
ATOM     35  H   UNL     1     -41.523  42.854  27.488  1.00  0.00     0.082 H 
ATOM     36  H   UNL     1     -43.852  43.487  23.951  1.00  0.00     0.062 H 
ATOM     37  H   UNL     1     -41.908  44.066  25.378  1.00  0.00     0.064 H 
ENDBRANCH  20  22
ENDBRANCH  15  18
ENDBRANCH   1  15
BRANCH   6  38
ATOM     38  C   UNL     1     -49.219  30.458  24.975  1.00  0.00     0.039 C 
ATOM     39  H   UNL     1     -50.132  30.338  25.573  1.00  0.00     0.050 H 
ATOM     40  H   UNL     1     -49.570  30.557  23.940  1.00  0.00     0.050 H 
BRANCH  38  41
ATOM     41  N   UNL     1     -48.437  29.235  25.076  1.00  0.00    -0.294 NA
ATOM     42  C   UNL     1     -47.740  28.766  23.885  1.00  0.00     0.002 C 
ATOM     43  C   UNL     1     -49.159  28.026  25.512  1.00  0.00     0.011 C 
ATOM     44  C   UNL     1     -48.038  27.276  23.995  1.00  0.00    -0.026 C 
ATOM     45  H   UNL     1     -46.667  28.969  23.958  1.00  0.00     0.043 H 
ATOM     46  H   UNL     1     -48.116  29.174  22.943  1.00  0.00     0.043 H 
ATOM     47  C   UNL     1     -49.576  27.258  24.204  1.00  0.00    -0.033 C 
ATOM     48  C   UNL     1     -47.985  26.976  25.528  1.00  0.00    -0.033 C 
ATOM     49  H   UNL     1     -49.827  28.082  26.369  1.00  0.00     0.047 H 
ATOM     50  H   UNL     1     -47.592  26.571  23.296  1.00  0.00     0.032 H 
ATOM     51  H   UNL     1     -50.026  26.269  24.362  1.00  0.00     0.029 H 
ATOM     52  H   UNL     1     -50.175  27.775  23.452  1.00  0.00     0.029 H 
ATOM     53  H   UNL     1     -48.257  25.958  25.828  1.00  0.00     0.029 H 
ATOM     54  H   UNL     1     -47.067  27.259  26.057  1.00  0.00     0.029 H 
ENDBRANCH  38  41
ENDBRANCH   6  38
TORSDOF 5
ENDMDL
