MODEL 1
REMARK VINA RESULT:     -10.4      0.000      0.000
REMARK SMILES Cn1cc(-c2cn([C@@H]3C[C@H](CCc4ccc5ccc(N)nc5c4)[C@@H](O)[C@H]3O)c3ncnc(N)c23)cn1
REMARK SMILES IDX 8 1 9 2 10 3 24 4 26 5 7 12 5 13 6 14 34 15 28 17 32 18
REMARK SMILES IDX 29 19 31 20 30 21 4 23 2 24 3 25 36 26 35 28 1 30 33 34
REMARK SMILES IDX 27 37 11 39 12 42 13 45 14 46 23 47 15 48 22 50 16 52 21 54
REMARK SMILES IDX 17 55 19 56 18 57 20 60 25 63
REMARK H PARENT 8 6 9 7 9 8 10 9 24 10 26 11 6 16 30 22 3 27 35 29 1 31 1 32
REMARK H PARENT 1 33 33 35 33 36 27 38 11 40 11 41 12 43 12 44 14 49 23 51
REMARK H PARENT 15 53 17 58 18 59 20 61 20 62 25 64
REMARK Flexibility Score: inf
ROOT
ATOM      1  C   UNL     1     -45.111  38.033  28.764  1.00  0.00     0.064 C 
ATOM      2  C   UNL     1     -45.045  36.917  27.708  1.00  0.00    -0.024 C 
ATOM      3  C   UNL     1     -46.209  35.984  28.054  1.00  0.00    -0.010 C 
ATOM      4  C   UNL     1     -47.300  36.974  28.471  1.00  0.00     0.085 C 
ATOM      5  C   UNL     1     -46.552  38.017  29.319  1.00  0.00     0.101 C 
ATOM      6  H   UNL     1     -44.420  37.772  29.577  1.00  0.00     0.056 H 
ATOM      7  H   UNL     1     -45.154  37.311  26.690  1.00  0.00     0.029 H 
ATOM      8  H   UNL     1     -44.084  36.391  27.745  1.00  0.00     0.029 H 
ATOM      9  H   UNL     1     -45.933  35.352  28.910  1.00  0.00     0.033 H 
ATOM     10  H   UNL     1     -47.754  37.440  27.591  1.00  0.00     0.063 H 
ATOM     11  H   UNL     1     -47.068  38.983  29.307  1.00  0.00     0.065 H 
ENDROOT
BRANCH   1  12
ATOM     12  N   UNL     1     -44.678  39.326  28.264  1.00  0.00    -0.326 N 
ATOM     13  C   UNL     1     -44.569  41.167  27.017  1.00  0.00     0.016 A 
ATOM     14  C   UNL     1     -45.266  39.992  27.218  1.00  0.00     0.015 A 
ATOM     15  C   UNL     1     -43.543  41.246  28.007  1.00  0.00     0.069 A 
ATOM     16  H   UNL     1     -46.110  39.571  26.686  1.00  0.00     0.083 H 
ATOM     17  C   UNL     1     -43.632  40.072  28.750  1.00  0.00     0.146 A 
ATOM     18  C   UNL     1     -42.542  42.151  28.405  1.00  0.00     0.136 A 
ATOM     19  N   UNL     1     -42.845  39.710  29.777  1.00  0.00    -0.218 NA
ATOM     20  N   UNL     1     -41.733  41.823  29.432  1.00  0.00    -0.219 NA
ATOM     21  C   UNL     1     -41.918  40.641  30.045  1.00  0.00     0.120 A 
ATOM     22  H   UNL     1     -41.237  40.417  30.860  1.00  0.00     0.106 H 
BRANCH  13  23
ATOM     23  C   UNL     1     -44.842  42.134  25.967  1.00  0.00     0.022 A 
ATOM     24  N   UNL     1     -44.840  43.351  24.150  1.00  0.00    -0.275 N 
ATOM     25  C   UNL     1     -44.157  42.364  24.797  1.00  0.00     0.032 A 
ATOM     26  N   UNL     1     -45.926  43.781  24.821  1.00  0.00    -0.181 NA
ATOM     27  H   UNL     1     -43.270  41.908  24.378  1.00  0.00     0.084 H 
ATOM     28  C   UNL     1     -45.933  43.025  25.924  1.00  0.00     0.057 A 
ATOM     29  H   UNL     1     -46.726  43.163  26.648  1.00  0.00     0.087 H 
BRANCH  24  30
ATOM     30  C   UNL     1     -44.516  43.937  22.872  1.00  0.00     0.030 C 
ATOM     31  H   UNL     1     -44.325  43.144  22.146  1.00  0.00     0.048 H 
ATOM     32  H   UNL     1     -45.364  44.545  22.547  1.00  0.00     0.048 H 
ATOM     33  H   UNL     1     -43.622  44.555  22.994  1.00  0.00     0.048 H 
ENDBRANCH  24  30
ENDBRANCH  13  23
BRANCH  18  34
ATOM     34  N   UNL     1     -42.340  43.407  27.847  1.00  0.00    -0.383 N 
ATOM     35  H   UNL     1     -42.741  43.437  26.916  1.00  0.00     0.158 HD
ATOM     36  H   UNL     1     -41.385  43.732  27.921  1.00  0.00     0.158 HD
ENDBRANCH  18  34
ENDBRANCH   1  12
BRANCH   5  37
ATOM     37  O   UNL     1     -46.544  37.566  30.690  1.00  0.00    -0.388 OA
ATOM     38  H   UNL     1     -46.977  38.262  31.218  1.00  0.00     0.211 HD
ENDBRANCH   5  37
BRANCH   3  39
ATOM     39  C   UNL     1     -46.579  35.076  26.875  1.00  0.00    -0.044 C 
ATOM     40  H   UNL     1     -45.884  35.281  26.052  1.00  0.00     0.027 H 
ATOM     41  H   UNL     1     -47.578  35.336  26.502  1.00  0.00     0.027 H 
BRANCH  39  42
ATOM     42  C   UNL     1     -46.534  33.584  27.219  1.00  0.00    -0.027 C 
ATOM     43  H   UNL     1     -45.504  33.270  27.424  1.00  0.00     0.032 H 
ATOM     44  H   UNL     1     -47.106  33.381  28.131  1.00  0.00     0.032 H 
BRANCH  42  45
ATOM     45  C   UNL     1     -47.098  32.746  26.096  1.00  0.00    -0.046 A 
ATOM     46  C   UNL     1     -48.355  32.152  26.212  1.00  0.00    -0.058 A 
ATOM     47  C   UNL     1     -46.373  32.577  24.905  1.00  0.00    -0.033 A 
ATOM     48  C   UNL     1     -48.869  31.396  25.160  1.00  0.00    -0.053 A 
ATOM     49  H   UNL     1     -48.939  32.273  27.122  1.00  0.00     0.063 H 
ATOM     50  C   UNL     1     -46.862  31.831  23.840  1.00  0.00     0.073 A 
ATOM     51  H   UNL     1     -45.394  33.040  24.796  1.00  0.00     0.065 H 
ATOM     52  C   UNL     1     -48.129  31.231  23.977  1.00  0.00     0.000 A 
ATOM     53  H   UNL     1     -49.849  30.936  25.268  1.00  0.00     0.063 H 
ATOM     54  N   UNL     1     -46.121  31.704  22.724  1.00  0.00    -0.231 NA
ATOM     55  C   UNL     1     -48.613  30.481  22.901  1.00  0.00    -0.049 A 
ATOM     56  C   UNL     1     -46.602  30.980  21.702  1.00  0.00     0.124 A 
ATOM     57  C   UNL     1     -47.840  30.353  21.751  1.00  0.00    -0.019 A 
ATOM     58  H   UNL     1     -49.583  29.996  22.952  1.00  0.00     0.063 H 
ATOM     59  H   UNL     1     -48.207  29.772  20.913  1.00  0.00     0.066 H 
BRANCH  56  60
ATOM     60  N   UNL     1     -45.808  30.864  20.556  1.00  0.00    -0.384 N 
ATOM     61  H   UNL     1     -45.111  30.141  20.699  1.00  0.00     0.158 HD
ATOM     62  H   UNL     1     -46.387  30.601  19.766  1.00  0.00     0.158 HD
ENDBRANCH  56  60
ENDBRANCH  42  45
ENDBRANCH  39  42
ENDBRANCH   3  39
BRANCH   4  63
ATOM     63  O   UNL     1     -48.319  36.340  29.232  1.00  0.00    -0.390 OA
ATOM     64  H   UNL     1     -48.521  35.511  28.747  1.00  0.00     0.211 HD
ENDBRANCH   4  63
TORSDOF 10
ENDMDL
MODEL 2
REMARK VINA RESULT:     -10.0      2.560     11.257
REMARK SMILES Cn1cc(-c2cn([C@@H]3C[C@H](CCc4ccc5ccc(N)nc5c4)[C@@H](O)[C@H]3O)c3ncnc(N)c23)cn1
REMARK SMILES IDX 8 1 9 2 10 3 24 4 26 5 7 12 5 13 6 14 34 15 28 17 32 18
REMARK SMILES IDX 29 19 31 20 30 21 4 23 2 24 3 25 36 26 35 28 1 30 33 34
REMARK SMILES IDX 27 37 11 39 12 42 13 45 14 46 23 47 15 48 22 50 16 52 21 54
REMARK SMILES IDX 17 55 19 56 18 57 20 60 25 63
REMARK H PARENT 8 6 9 7 9 8 10 9 24 10 26 11 6 16 30 22 3 27 35 29 1 31 1 32
REMARK H PARENT 1 33 33 35 33 36 27 38 11 40 11 41 12 43 12 44 14 49 23 51
REMARK H PARENT 15 53 17 58 18 59 20 61 20 62 25 64
REMARK Flexibility Score: inf
ROOT
ATOM      1  C   UNL     1     -47.788  32.410  26.543  1.00  0.00     0.064 C 
ATOM      2  C   UNL     1     -48.325  33.836  26.342  1.00  0.00    -0.024 C 
ATOM      3  C   UNL     1     -47.325  34.734  27.076  1.00  0.00    -0.010 C 
ATOM      4  C   UNL     1     -45.989  34.058  26.753  1.00  0.00     0.085 C 
ATOM      5  C   UNL     1     -46.291  32.556  26.890  1.00  0.00     0.101 C 
ATOM      6  H   UNL     1     -48.307  31.970  27.406  1.00  0.00     0.056 H 
ATOM      7  H   UNL     1     -48.381  34.106  25.281  1.00  0.00     0.029 H 
ATOM      8  H   UNL     1     -49.335  33.943  26.753  1.00  0.00     0.029 H 
ATOM      9  H   UNL     1     -47.513  34.689  28.158  1.00  0.00     0.033 H 
ATOM     10  H   UNL     1     -45.671  34.301  25.734  1.00  0.00     0.063 H 
ATOM     11  H   UNL     1     -45.608  31.956  26.279  1.00  0.00     0.065 H 
ENDROOT
BRANCH   1  12
ATOM     12  N   UNL     1     -48.057  31.529  25.419  1.00  0.00    -0.326 N 
ATOM     13  C   UNL     1     -48.955  29.902  24.193  1.00  0.00     0.016 A 
ATOM     14  C   UNL     1     -49.010  30.541  25.416  1.00  0.00     0.015 A 
ATOM     15  C   UNL     1     -47.962  30.552  23.399  1.00  0.00     0.069 A 
ATOM     16  H   UNL     1     -49.630  30.355  26.284  1.00  0.00     0.083 H 
ATOM     17  C   UNL     1     -47.414  31.546  24.206  1.00  0.00     0.146 A 
ATOM     18  C   UNL     1     -47.442  30.462  22.096  1.00  0.00     0.136 A 
ATOM     19  N   UNL     1     -46.426  32.394  23.874  1.00  0.00    -0.218 NA
ATOM     20  N   UNL     1     -46.450  31.297  21.726  1.00  0.00    -0.219 NA
ATOM     21  C   UNL     1     -45.998  32.194  22.619  1.00  0.00     0.120 A 
ATOM     22  H   UNL     1     -45.194  32.838  22.279  1.00  0.00     0.106 H 
BRANCH  13  23
ATOM     23  C   UNL     1     -49.768  28.760  23.807  1.00  0.00     0.022 A 
ATOM     24  N   UNL     1     -51.180  27.383  22.864  1.00  0.00    -0.275 N 
ATOM     25  C   UNL     1     -50.756  28.679  22.854  1.00  0.00     0.032 A 
ATOM     26  N   UNL     1     -50.535  26.613  23.763  1.00  0.00    -0.181 NA
ATOM     27  H   UNL     1     -51.170  29.415  22.179  1.00  0.00     0.084 H 
ATOM     28  C   UNL     1     -49.662  27.455  24.327  1.00  0.00     0.057 A 
ATOM     29  H   UNL     1     -48.996  27.081  25.093  1.00  0.00     0.087 H 
BRANCH  24  30
ATOM     30  C   UNL     1     -52.205  26.799  22.034  1.00  0.00     0.030 C 
ATOM     31  H   UNL     1     -51.741  26.165  21.274  1.00  0.00     0.048 H 
ATOM     32  H   UNL     1     -52.863  26.199  22.668  1.00  0.00     0.048 H 
ATOM     33  H   UNL     1     -52.763  27.608  21.555  1.00  0.00     0.048 H 
ENDBRANCH  24  30
ENDBRANCH  13  23
BRANCH  18  34
ATOM     34  N   UNL     1     -47.905  29.594  21.115  1.00  0.00    -0.383 N 
ATOM     35  H   UNL     1     -47.785  30.015  20.200  1.00  0.00     0.158 HD
ATOM     36  H   UNL     1     -48.827  29.223  21.307  1.00  0.00     0.158 HD
ENDBRANCH  18  34
ENDBRANCH   1  12
BRANCH   5  37
ATOM     37  O   UNL     1     -46.067  32.172  28.263  1.00  0.00    -0.388 OA
ATOM     38  H   UNL     1     -46.645  31.406  28.439  1.00  0.00     0.211 HD
ENDBRANCH   5  37
BRANCH   3  39
ATOM     39  C   UNL     1     -47.433  36.195  26.621  1.00  0.00    -0.044 C 
ATOM     40  H   UNL     1     -48.200  36.255  25.838  1.00  0.00     0.027 H 
ATOM     41  H   UNL     1     -46.493  36.512  26.153  1.00  0.00     0.027 H 
BRANCH  39  42
ATOM     42  C   UNL     1     -47.789  37.161  27.756  1.00  0.00    -0.027 C 
ATOM     43  H   UNL     1     -48.452  37.953  27.389  1.00  0.00     0.032 H 
ATOM     44  H   UNL     1     -48.341  36.640  28.547  1.00  0.00     0.032 H 
BRANCH  42  45
ATOM     45  C   UNL     1     -46.550  37.783  28.355  1.00  0.00    -0.046 A 
ATOM     46  C   UNL     1     -45.940  37.216  29.475  1.00  0.00    -0.058 A 
ATOM     47  C   UNL     1     -45.980  38.927  27.774  1.00  0.00    -0.033 A 
ATOM     48  C   UNL     1     -44.787  37.792  30.006  1.00  0.00    -0.053 A 
ATOM     49  H   UNL     1     -46.359  36.326  29.939  1.00  0.00     0.063 H 
ATOM     50  C   UNL     1     -44.830  39.519  28.281  1.00  0.00     0.073 A 
ATOM     51  H   UNL     1     -46.441  39.376  26.897  1.00  0.00     0.065 H 
ATOM     52  C   UNL     1     -44.230  38.939  29.416  1.00  0.00     0.000 A 
ATOM     53  H   UNL     1     -44.325  37.340  30.881  1.00  0.00     0.063 H 
ATOM     54  N   UNL     1     -44.329  40.615  27.682  1.00  0.00    -0.231 NA
ATOM     55  C   UNL     1     -43.075  39.543  29.921  1.00  0.00    -0.049 A 
ATOM     56  C   UNL     1     -43.220  41.180  28.181  1.00  0.00     0.124 A 
ATOM     57  C   UNL     1     -42.565  40.677  29.297  1.00  0.00    -0.019 A 
ATOM     58  H   UNL     1     -42.572  39.139  30.794  1.00  0.00     0.063 H 
ATOM     59  H   UNL     1     -41.670  41.152  29.682  1.00  0.00     0.066 H 
BRANCH  56  60
ATOM     60  N   UNL     1     -42.724  42.320  27.538  1.00  0.00    -0.384 N 
ATOM     61  H   UNL     1     -43.345  43.103  27.712  1.00  0.00     0.158 HD
ATOM     62  H   UNL     1     -41.807  42.547  27.907  1.00  0.00     0.158 HD
ENDBRANCH  56  60
ENDBRANCH  42  45
ENDBRANCH  39  42
ENDBRANCH   3  39
BRANCH   4  63
ATOM     63  O   UNL     1     -44.969  34.454  27.659  1.00  0.00    -0.390 OA
ATOM     64  H   UNL     1     -44.526  35.216  27.227  1.00  0.00     0.211 HD
ENDBRANCH   4  63
TORSDOF 10
ENDMDL
MODEL 3
REMARK VINA RESULT:      -9.9      1.821      2.893
REMARK SMILES Cn1cc(-c2cn([C@@H]3C[C@H](CCc4ccc5ccc(N)nc5c4)[C@@H](O)[C@H]3O)c3ncnc(N)c23)cn1
REMARK SMILES IDX 8 1 9 2 10 3 24 4 26 5 7 12 5 13 6 14 34 15 28 17 32 18
REMARK SMILES IDX 29 19 31 20 30 21 4 23 2 24 3 25 36 26 35 28 1 30 33 34
REMARK SMILES IDX 27 37 11 39 12 42 13 45 14 46 23 47 15 48 22 50 16 52 21 54
REMARK SMILES IDX 17 55 19 56 18 57 20 60 25 63
REMARK H PARENT 8 6 9 7 9 8 10 9 24 10 26 11 6 16 30 22 3 27 35 29 1 31 1 32
REMARK H PARENT 1 33 33 35 33 36 27 38 11 40 11 41 12 43 12 44 14 49 23 51
REMARK H PARENT 15 53 17 58 18 59 20 61 20 62 25 64
REMARK Flexibility Score: inf
ROOT
ATOM      1  C   UNL     1     -44.647  38.729  28.161  1.00  0.00     0.064 C 
ATOM      2  C   UNL     1     -45.360  37.490  27.595  1.00  0.00    -0.024 C 
ATOM      3  C   UNL     1     -45.733  36.661  28.826  1.00  0.00    -0.010 C 
ATOM      4  C   UNL     1     -46.142  37.743  29.830  1.00  0.00     0.085 C 
ATOM      5  C   UNL     1     -45.090  38.848  29.635  1.00  0.00     0.101 C 
ATOM      6  H   UNL     1     -43.565  38.540  28.134  1.00  0.00     0.056 H 
ATOM      7  H   UNL     1     -46.256  37.761  27.024  1.00  0.00     0.029 H 
ATOM      8  H   UNL     1     -44.706  36.930  26.917  1.00  0.00     0.029 H 
ATOM      9  H   UNL     1     -44.846  36.127  29.195  1.00  0.00     0.033 H 
ATOM     10  H   UNL     1     -47.147  38.117  29.606  1.00  0.00     0.063 H 
ATOM     11  H   UNL     1     -45.482  39.827  29.928  1.00  0.00     0.065 H 
ENDROOT
BRANCH   1  12
ATOM     12  N   UNL     1     -44.866  39.931  27.373  1.00  0.00    -0.326 N 
ATOM     13  C   UNL     1     -44.465  41.688  26.066  1.00  0.00     0.016 A 
ATOM     14  C   UNL     1     -43.890  40.581  26.660  1.00  0.00     0.015 A 
ATOM     15  C   UNL     1     -45.856  41.690  26.390  1.00  0.00     0.069 A 
ATOM     16  H   UNL     1     -42.868  40.225  26.651  1.00  0.00     0.083 H 
ATOM     17  C   UNL     1     -46.060  40.592  27.221  1.00  0.00     0.146 A 
ATOM     18  C   UNL     1     -46.997  42.457  26.093  1.00  0.00     0.136 A 
ATOM     19  N   UNL     1     -47.221  40.217  27.785  1.00  0.00    -0.218 NA
ATOM     20  N   UNL     1     -48.180  42.111  26.640  1.00  0.00    -0.219 NA
ATOM     21  C   UNL     1     -48.226  41.037  27.447  1.00  0.00     0.120 A 
ATOM     22  H   UNL     1     -49.197  40.804  27.871  1.00  0.00     0.106 H 
BRANCH  13  23
ATOM     23  C   UNL     1     -43.756  42.672  25.265  1.00  0.00     0.022 A 
ATOM     24  N   UNL     1     -42.990  43.954  23.667  1.00  0.00    -0.275 N 
ATOM     25  C   UNL     1     -43.827  42.904  23.911  1.00  0.00     0.032 A 
ATOM     26  N   UNL     1     -42.377  44.420  24.773  1.00  0.00    -0.181 NA
ATOM     27  H   UNL     1     -44.399  42.430  23.125  1.00  0.00     0.084 H 
ATOM     28  C   UNL     1     -42.859  43.644  25.750  1.00  0.00     0.057 A 
ATOM     29  H   UNL     1     -42.530  43.818  26.766  1.00  0.00     0.087 H 
BRANCH  24  30
ATOM     30  C   UNL     1     -42.725  44.574  22.392  1.00  0.00     0.030 C 
ATOM     31  H   UNL     1     -43.594  45.161  22.086  1.00  0.00     0.048 H 
ATOM     32  H   UNL     1     -41.854  45.226  22.501  1.00  0.00     0.048 H 
ATOM     33  H   UNL     1     -42.529  43.787  21.660  1.00  0.00     0.048 H 
ENDBRANCH  24  30
ENDBRANCH  13  23
BRANCH  18  34
ATOM     34  N   UNL     1     -47.020  43.541  25.225  1.00  0.00    -0.383 N 
ATOM     35  H   UNL     1     -47.404  43.256  24.330  1.00  0.00     0.158 HD
ATOM     36  H   UNL     1     -46.143  44.043  25.183  1.00  0.00     0.158 HD
ENDBRANCH  18  34
ENDBRANCH   1  12
BRANCH   5  37
ATOM     37  O   UNL     1     -43.973  38.569  30.506  1.00  0.00    -0.388 OA
ATOM     38  H   UNL     1     -43.659  39.428  30.844  1.00  0.00     0.211 HD
ENDBRANCH   5  37
BRANCH   3  39
ATOM     39  C   UNL     1     -46.826  35.632  28.508  1.00  0.00    -0.044 C 
ATOM     40  H   UNL     1     -47.572  35.663  29.313  1.00  0.00     0.027 H 
ATOM     41  H   UNL     1     -46.402  34.620  28.524  1.00  0.00     0.027 H 
BRANCH  39  42
ATOM     42  C   UNL     1     -47.518  35.876  27.164  1.00  0.00    -0.027 C 
ATOM     43  H   UNL     1     -48.455  36.426  27.311  1.00  0.00     0.032 H 
ATOM     44  H   UNL     1     -46.893  36.500  26.515  1.00  0.00     0.032 H 
BRANCH  42  45
ATOM     45  C   UNL     1     -47.808  34.575  26.454  1.00  0.00    -0.046 A 
ATOM     46  C   UNL     1     -49.074  33.991  26.526  1.00  0.00    -0.058 A 
ATOM     47  C   UNL     1     -46.813  33.949  25.686  1.00  0.00    -0.033 A 
ATOM     48  C   UNL     1     -49.332  32.799  25.851  1.00  0.00    -0.053 A 
ATOM     49  H   UNL     1     -49.864  34.460  27.109  1.00  0.00     0.063 H 
ATOM     50  C   UNL     1     -47.043  32.762  25.002  1.00  0.00     0.073 A 
ATOM     51  H   UNL     1     -45.823  34.394  25.614  1.00  0.00     0.065 H 
ATOM     52  C   UNL     1     -48.324  32.182  25.091  1.00  0.00     0.000 A 
ATOM     53  H   UNL     1     -50.322  32.355  25.921  1.00  0.00     0.063 H 
ATOM     54  N   UNL     1     -46.050  32.208  24.283  1.00  0.00    -0.231 NA
ATOM     55  C   UNL     1     -48.546  30.987  24.401  1.00  0.00    -0.049 A 
ATOM     56  C   UNL     1     -46.283  31.061  23.627  1.00  0.00     0.124 A 
ATOM     57  C   UNL     1     -47.514  30.420  23.661  1.00  0.00    -0.019 A 
ATOM     58  H   UNL     1     -49.514  30.496  24.435  1.00  0.00     0.063 H 
ATOM     59  H   UNL     1     -47.677  29.493  23.123  1.00  0.00     0.066 H 
BRANCH  56  60
ATOM     60  N   UNL     1     -45.230  30.508  22.889  1.00  0.00    -0.384 N 
ATOM     61  H   UNL     1     -44.346  30.833  23.265  1.00  0.00     0.158 HD
ATOM     62  H   UNL     1     -45.258  29.496  22.962  1.00  0.00     0.158 HD
ENDBRANCH  56  60
ENDBRANCH  42  45
ENDBRANCH  39  42
ENDBRANCH   3  39
BRANCH   4  63
ATOM     63  O   UNL     1     -46.122  37.254  31.164  1.00  0.00    -0.390 OA
ATOM     64  H   UNL     1     -47.054  37.021  31.364  1.00  0.00     0.211 HD
ENDBRANCH   4  63
TORSDOF 10
ENDMDL
MODEL 4
REMARK VINA RESULT:      -9.6      2.607      3.699
REMARK SMILES Cn1cc(-c2cn([C@@H]3C[C@H](CCc4ccc5ccc(N)nc5c4)[C@@H](O)[C@H]3O)c3ncnc(N)c23)cn1
REMARK SMILES IDX 8 1 9 2 10 3 24 4 26 5 7 12 5 13 6 14 34 15 28 17 32 18
REMARK SMILES IDX 29 19 31 20 30 21 4 23 2 24 3 25 36 26 35 28 1 30 33 34
REMARK SMILES IDX 27 37 11 39 12 42 13 45 14 46 23 47 15 48 22 50 16 52 21 54
REMARK SMILES IDX 17 55 19 56 18 57 20 60 25 63
REMARK H PARENT 8 6 9 7 9 8 10 9 24 10 26 11 6 16 30 22 3 27 35 29 1 31 1 32
REMARK H PARENT 1 33 33 35 33 36 27 38 11 40 11 41 12 43 12 44 14 49 23 51
REMARK H PARENT 15 53 17 58 18 59 20 61 20 62 25 64
REMARK Flexibility Score: inf
ROOT
ATOM      1  C   UNL     1     -45.545  38.700  28.082  1.00  0.00     0.064 C 
ATOM      2  C   UNL     1     -45.785  37.431  27.249  1.00  0.00    -0.024 C 
ATOM      3  C   UNL     1     -45.625  36.278  28.244  1.00  0.00    -0.010 C 
ATOM      4  C   UNL     1     -46.282  36.848  29.504  1.00  0.00     0.085 C 
ATOM      5  C   UNL     1     -45.787  38.304  29.555  1.00  0.00     0.101 C 
ATOM      6  H   UNL     1     -44.491  38.988  27.966  1.00  0.00     0.056 H 
ATOM      7  H   UNL     1     -46.786  37.420  26.801  1.00  0.00     0.029 H 
ATOM      8  H   UNL     1     -45.065  37.352  26.426  1.00  0.00     0.029 H 
ATOM      9  H   UNL     1     -44.557  36.095  28.430  1.00  0.00     0.033 H 
ATOM     10  H   UNL     1     -47.373  36.809  29.422  1.00  0.00     0.063 H 
ATOM     11  H   UNL     1     -46.488  38.943  30.102  1.00  0.00     0.065 H 
ENDROOT
BRANCH   1  12
ATOM     12  N   UNL     1     -46.327  39.840  27.634  1.00  0.00    -0.326 N 
ATOM     13  C   UNL     1     -48.037  41.241  27.371  1.00  0.00     0.016 A 
ATOM     14  C   UNL     1     -47.621  40.093  28.016  1.00  0.00     0.015 A 
ATOM     15  C   UNL     1     -46.942  41.736  26.600  1.00  0.00     0.069 A 
ATOM     16  H   UNL     1     -48.149  39.430  28.690  1.00  0.00     0.083 H 
ATOM     17  C   UNL     1     -45.904  40.825  26.775  1.00  0.00     0.146 A 
ATOM     18  C   UNL     1     -46.657  42.840  25.776  1.00  0.00     0.136 A 
ATOM     19  N   UNL     1     -44.683  40.881  26.216  1.00  0.00    -0.218 NA
ATOM     20  N   UNL     1     -45.443  42.931  25.197  1.00  0.00    -0.219 NA
ATOM     21  C   UNL     1     -44.543  41.962  25.436  1.00  0.00     0.120 A 
ATOM     22  H   UNL     1     -43.583  42.074  24.941  1.00  0.00     0.106 H 
BRANCH  13  23
ATOM     23  C   UNL     1     -49.367  41.820  27.465  1.00  0.00     0.022 A 
ATOM     24  N   UNL     1     -51.125  43.032  27.936  1.00  0.00    -0.275 N 
ATOM     25  C   UNL     1     -49.807  42.865  28.244  1.00  0.00     0.032 A 
ATOM     26  N   UNL     1     -51.575  42.164  27.009  1.00  0.00    -0.181 NA
ATOM     27  H   UNL     1     -49.299  43.494  28.962  1.00  0.00     0.084 H 
ATOM     28  C   UNL     1     -50.494  41.434  26.712  1.00  0.00     0.057 A 
ATOM     29  H   UNL     1     -50.578  40.653  25.968  1.00  0.00     0.087 H 
BRANCH  24  30
ATOM     30  C   UNL     1     -52.028  44.012  28.489  1.00  0.00     0.030 C 
ATOM     31  H   UNL     1     -51.794  44.167  29.545  1.00  0.00     0.048 H 
ATOM     32  H   UNL     1     -51.902  44.947  27.938  1.00  0.00     0.048 H 
ATOM     33  H   UNL     1     -53.049  43.637  28.385  1.00  0.00     0.048 H 
ENDBRANCH  24  30
ENDBRANCH  13  23
BRANCH  18  34
ATOM     34  N   UNL     1     -47.527  43.896  25.538  1.00  0.00    -0.383 N 
ATOM     35  H   UNL     1     -48.305  43.853  26.186  1.00  0.00     0.158 HD
ATOM     36  H   UNL     1     -47.778  44.001  24.563  1.00  0.00     0.158 HD
ENDBRANCH  18  34
ENDBRANCH   1  12
BRANCH   5  37
ATOM     37  O   UNL     1     -44.541  38.335  30.282  1.00  0.00    -0.388 OA
ATOM     38  H   UNL     1     -44.450  39.235  30.646  1.00  0.00     0.211 HD
ENDBRANCH   5  37
BRANCH   3  39
ATOM     39  C   UNL     1     -46.258  34.983  27.719  1.00  0.00    -0.044 C 
ATOM     40  H   UNL     1     -47.072  34.698  28.397  1.00  0.00     0.027 H 
ATOM     41  H   UNL     1     -45.526  34.166  27.760  1.00  0.00     0.027 H 
BRANCH  39  42
ATOM     42  C   UNL     1     -46.804  35.107  26.293  1.00  0.00    -0.027 C 
ATOM     43  H   UNL     1     -47.659  35.793  26.271  1.00  0.00     0.032 H 
ATOM     44  H   UNL     1     -46.048  35.535  25.626  1.00  0.00     0.032 H 
BRANCH  42  45
ATOM     45  C   UNL     1     -47.228  33.763  25.750  1.00  0.00    -0.046 A 
ATOM     46  C   UNL     1     -48.445  33.194  26.128  1.00  0.00    -0.058 A 
ATOM     47  C   UNL     1     -46.413  33.081  24.832  1.00  0.00    -0.033 A 
ATOM     48  C   UNL     1     -48.830  31.961  25.604  1.00  0.00    -0.053 A 
ATOM     49  H   UNL     1     -49.097  33.706  26.832  1.00  0.00     0.063 H 
ATOM     50  C   UNL     1     -46.773  31.852  24.294  1.00  0.00     0.073 A 
ATOM     51  H   UNL     1     -45.464  33.515  24.523  1.00  0.00     0.065 H 
ATOM     52  C   UNL     1     -48.001  31.288  24.691  1.00  0.00     0.000 A 
ATOM     53  H   UNL     1     -49.780  31.529  25.911  1.00  0.00     0.063 H 
ATOM     54  N   UNL     1     -45.950  31.245  23.419  1.00  0.00    -0.231 NA
ATOM     55  C   UNL     1     -48.355  30.050  24.145  1.00  0.00    -0.049 A 
ATOM     56  C   UNL     1     -46.308  30.058  22.906  1.00  0.00     0.124 A 
ATOM     57  C   UNL     1     -47.498  29.428  23.243  1.00  0.00    -0.019 A 
ATOM     58  H   UNL     1     -49.289  29.569  24.416  1.00  0.00     0.063 H 
ATOM     59  H   UNL     1     -47.764  28.469  22.815  1.00  0.00     0.066 H 
BRANCH  56  60
ATOM     60  N   UNL     1     -45.430  29.450  22.001  1.00  0.00    -0.384 N 
ATOM     61  H   UNL     1     -44.474  29.600  22.304  1.00  0.00     0.158 HD
ATOM     62  H   UNL     1     -45.607  28.452  21.974  1.00  0.00     0.158 HD
ENDBRANCH  56  60
ENDBRANCH  42  45
ENDBRANCH  39  42
ENDBRANCH   3  39
BRANCH   4  63
ATOM     63  O   UNL     1     -45.884  36.138  30.669  1.00  0.00    -0.390 OA
ATOM     64  H   UNL     1     -45.036  36.549  30.942  1.00  0.00     0.211 HD
ENDBRANCH   4  63
TORSDOF 10
ENDMDL
MODEL 5
REMARK VINA RESULT:      -9.6      2.547     11.226
REMARK SMILES Cn1cc(-c2cn([C@@H]3C[C@H](CCc4ccc5ccc(N)nc5c4)[C@@H](O)[C@H]3O)c3ncnc(N)c23)cn1
REMARK SMILES IDX 8 1 9 2 10 3 24 4 26 5 7 12 5 13 6 14 34 15 28 17 32 18
REMARK SMILES IDX 29 19 31 20 30 21 4 23 2 24 3 25 36 26 35 28 1 30 33 34
REMARK SMILES IDX 27 37 11 39 12 42 13 45 14 46 23 47 15 48 22 50 16 52 21 54
REMARK SMILES IDX 17 55 19 56 18 57 20 60 25 63
REMARK H PARENT 8 6 9 7 9 8 10 9 24 10 26 11 6 16 30 22 3 27 35 29 1 31 1 32
REMARK H PARENT 1 33 33 35 33 36 27 38 11 40 11 41 12 43 12 44 14 49 23 51
REMARK H PARENT 15 53 17 58 18 59 20 61 20 62 25 64
REMARK Flexibility Score: inf
ROOT
ATOM      1  C   UNL     1     -47.519  33.197  27.040  1.00  0.00     0.064 C 
ATOM      2  C   UNL     1     -47.932  34.576  26.500  1.00  0.00    -0.024 C 
ATOM      3  C   UNL     1     -46.954  35.557  27.152  1.00  0.00    -0.010 C 
ATOM      4  C   UNL     1     -45.643  34.768  27.127  1.00  0.00     0.085 C 
ATOM      5  C   UNL     1     -46.060  33.341  27.523  1.00  0.00     0.101 C 
ATOM      6  H   UNL     1     -48.154  32.969  27.907  1.00  0.00     0.056 H 
ATOM      7  H   UNL     1     -47.858  34.625  25.407  1.00  0.00     0.029 H 
ATOM      8  H   UNL     1     -48.970  34.812  26.761  1.00  0.00     0.029 H 
ATOM      9  H   UNL     1     -47.257  35.744  28.193  1.00  0.00     0.033 H 
ATOM     10  H   UNL     1     -45.204  34.782  26.124  1.00  0.00     0.063 H 
ATOM     11  H   UNL     1     -45.360  32.598  27.126  1.00  0.00     0.065 H 
ENDROOT
BRANCH   1  12
ATOM     12  N   UNL     1     -47.730  32.119  26.089  1.00  0.00    -0.326 N 
ATOM     13  C   UNL     1     -48.467  30.215  25.202  1.00  0.00     0.016 A 
ATOM     14  C   UNL     1     -48.539  31.033  26.312  1.00  0.00     0.015 A 
ATOM     15  C   UNL     1     -47.619  30.846  24.243  1.00  0.00     0.069 A 
ATOM     16  H   UNL     1     -49.077  30.914  27.245  1.00  0.00     0.083 H 
ATOM     17  C   UNL     1     -47.165  32.019  24.841  1.00  0.00     0.146 A 
ATOM     18  C   UNL     1     -47.166  30.611  22.932  1.00  0.00     0.136 A 
ATOM     19  N   UNL     1     -46.322  32.918  24.307  1.00  0.00    -0.218 NA
ATOM     20  N   UNL     1     -46.319  31.492  22.362  1.00  0.00    -0.219 NA
ATOM     21  C   UNL     1     -45.943  32.571  23.069  1.00  0.00     0.120 A 
ATOM     22  H   UNL     1     -45.254  33.247  22.572  1.00  0.00     0.106 H 
BRANCH  13  23
ATOM     23  C   UNL     1     -49.139  28.933  25.061  1.00  0.00     0.022 A 
ATOM     24  N   UNL     1     -49.838  26.871  25.261  1.00  0.00    -0.275 N 
ATOM     25  C   UNL     1     -48.928  27.762  25.750  1.00  0.00     0.032 A 
ATOM     26  N   UNL     1     -50.628  27.385  24.297  1.00  0.00    -0.181 NA
ATOM     27  H   UNL     1     -48.232  27.501  26.535  1.00  0.00     0.084 H 
ATOM     28  C   UNL     1     -50.208  28.650  24.189  1.00  0.00     0.057 A 
ATOM     29  H   UNL     1     -50.695  29.303  23.476  1.00  0.00     0.087 H 
BRANCH  24  30
ATOM     30  C   UNL     1     -50.017  25.500  25.671  1.00  0.00     0.030 C 
ATOM     31  H   UNL     1     -51.061  25.336  25.947  1.00  0.00     0.048 H 
ATOM     32  H   UNL     1     -49.746  24.851  24.834  1.00  0.00     0.048 H 
ATOM     33  H   UNL     1     -49.370  25.310  26.531  1.00  0.00     0.048 H 
ENDBRANCH  24  30
ENDBRANCH  13  23
BRANCH  18  34
ATOM     34  N   UNL     1     -47.563  29.544  22.136  1.00  0.00    -0.383 N 
ATOM     35  H   UNL     1     -48.575  29.508  22.090  1.00  0.00     0.158 HD
ATOM     36  H   UNL     1     -47.106  28.672  22.372  1.00  0.00     0.158 HD
ENDBRANCH  18  34
ENDBRANCH   1  12
BRANCH   5  37
ATOM     37  O   UNL     1     -46.007  33.236  28.961  1.00  0.00    -0.388 OA
ATOM     38  H   UNL     1     -46.722  32.627  29.225  1.00  0.00     0.211 HD
ENDBRANCH   5  37
BRANCH   3  39
ATOM     39  C   UNL     1     -46.913  36.898  26.408  1.00  0.00    -0.044 C 
ATOM     40  H   UNL     1     -47.675  36.876  25.618  1.00  0.00     0.027 H 
ATOM     41  H   UNL     1     -45.949  37.013  25.897  1.00  0.00     0.027 H 
BRANCH  39  42
ATOM     42  C   UNL     1     -47.158  38.107  27.317  1.00  0.00    -0.027 C 
ATOM     43  H   UNL     1     -48.066  38.638  27.009  1.00  0.00     0.032 H 
ATOM     44  H   UNL     1     -47.325  37.784  28.350  1.00  0.00     0.032 H 
BRANCH  42  45
ATOM     45  C   UNL     1     -45.987  39.060  27.287  1.00  0.00    -0.046 A 
ATOM     46  C   UNL     1     -45.771  39.889  26.185  1.00  0.00    -0.058 A 
ATOM     47  C   UNL     1     -45.114  39.144  28.384  1.00  0.00    -0.033 A 
ATOM     48  C   UNL     1     -44.697  40.776  26.180  1.00  0.00    -0.053 A 
ATOM     49  H   UNL     1     -46.437  39.847  25.326  1.00  0.00     0.063 H 
ATOM     50  C   UNL     1     -44.037  40.021  28.406  1.00  0.00     0.073 A 
ATOM     51  H   UNL     1     -45.273  38.509  29.253  1.00  0.00     0.065 H 
ATOM     52  C   UNL     1     -43.828  40.845  27.283  1.00  0.00     0.000 A 
ATOM     53  H   UNL     1     -44.540  41.413  25.313  1.00  0.00     0.063 H 
ATOM     54  N   UNL     1     -43.233  40.057  29.485  1.00  0.00    -0.231 NA
ATOM     55  C   UNL     1     -42.741  41.723  27.314  1.00  0.00    -0.049 A 
ATOM     56  C   UNL     1     -42.195  40.906  29.496  1.00  0.00     0.124 A 
ATOM     57  C   UNL     1     -41.914  41.753  28.432  1.00  0.00    -0.019 A 
ATOM     58  H   UNL     1     -42.533  42.381  26.475  1.00  0.00     0.063 H 
ATOM     59  H   UNL     1     -41.068  42.430  28.463  1.00  0.00     0.066 H 
BRANCH  56  60
ATOM     60  N   UNL     1     -41.377  40.919  30.631  1.00  0.00    -0.384 N 
ATOM     61  H   UNL     1     -41.864  40.480  31.404  1.00  0.00     0.158 HD
ATOM     62  H   UNL     1     -40.528  40.395  30.445  1.00  0.00     0.158 HD
ENDBRANCH  56  60
ENDBRANCH  42  45
ENDBRANCH  39  42
ENDBRANCH   3  39
BRANCH   4  63
ATOM     63  O   UNL     1     -44.697  35.293  28.049  1.00  0.00    -0.390 OA
ATOM     64  H   UNL     1     -44.924  34.881  28.910  1.00  0.00     0.211 HD
ENDBRANCH   4  63
TORSDOF 10
ENDMDL
MODEL 6
REMARK VINA RESULT:      -9.5      3.646      6.016
REMARK SMILES Cn1cc(-c2cn([C@@H]3C[C@H](CCc4ccc5ccc(N)nc5c4)[C@@H](O)[C@H]3O)c3ncnc(N)c23)cn1
REMARK SMILES IDX 8 1 9 2 10 3 24 4 26 5 7 12 5 13 6 14 34 15 28 17 32 18
REMARK SMILES IDX 29 19 31 20 30 21 4 23 2 24 3 25 36 26 35 28 1 30 33 34
REMARK SMILES IDX 27 37 11 39 12 42 13 45 14 46 23 47 15 48 22 50 16 52 21 54
REMARK SMILES IDX 17 55 19 56 18 57 20 60 25 63
REMARK H PARENT 8 6 9 7 9 8 10 9 24 10 26 11 6 16 30 22 3 27 35 29 1 31 1 32
REMARK H PARENT 1 33 33 35 33 36 27 38 11 40 11 41 12 43 12 44 14 49 23 51
REMARK H PARENT 15 53 17 58 18 59 20 61 20 62 25 64
REMARK Flexibility Score: inf
ROOT
ATOM      1  C   UNL     1     -46.307  33.829  26.519  1.00  0.00     0.064 C 
ATOM      2  C   UNL     1     -46.784  33.567  25.081  1.00  0.00    -0.024 C 
ATOM      3  C   UNL     1     -47.297  32.125  25.099  1.00  0.00    -0.010 C 
ATOM      4  C   UNL     1     -47.983  32.044  26.465  1.00  0.00     0.085 C 
ATOM      5  C   UNL     1     -47.022  32.788  27.408  1.00  0.00     0.101 C 
ATOM      6  H   UNL     1     -45.226  33.638  26.558  1.00  0.00     0.056 H 
ATOM      7  H   UNL     1     -47.582  34.258  24.784  1.00  0.00     0.029 H 
ATOM      8  H   UNL     1     -45.967  33.693  24.362  1.00  0.00     0.029 H 
ATOM      9  H   UNL     1     -46.446  31.429  25.068  1.00  0.00     0.033 H 
ATOM     10  H   UNL     1     -48.960  32.538  26.435  1.00  0.00     0.063 H 
ATOM     11  H   UNL     1     -47.552  33.198  28.274  1.00  0.00     0.065 H 
ENDROOT
BRANCH   1  12
ATOM     12  N   UNL     1     -46.490  35.205  26.946  1.00  0.00    -0.326 N 
ATOM     13  C   UNL     1     -46.026  37.299  27.543  1.00  0.00     0.016 A 
ATOM     14  C   UNL     1     -45.472  36.112  27.104  1.00  0.00     0.015 A 
ATOM     15  C   UNL     1     -47.441  37.127  27.612  1.00  0.00     0.069 A 
ATOM     16  H   UNL     1     -44.441  35.838  26.920  1.00  0.00     0.083 H 
ATOM     17  C   UNL     1     -47.688  35.805  27.252  1.00  0.00     0.146 A 
ATOM     18  C   UNL     1     -48.575  37.902  27.916  1.00  0.00     0.136 A 
ATOM     19  N   UNL     1     -48.885  35.197  27.198  1.00  0.00    -0.218 NA
ATOM     20  N   UNL     1     -49.794  37.327  27.873  1.00  0.00    -0.219 NA
ATOM     21  C   UNL     1     -49.881  36.030  27.532  1.00  0.00     0.120 A 
ATOM     22  H   UNL     1     -50.881  35.609  27.520  1.00  0.00     0.106 H 
BRANCH  13  23
ATOM     23  C   UNL     1     -45.276  38.498  27.881  1.00  0.00     0.022 A 
ATOM     24  N   UNL     1     -43.892  39.970  28.717  1.00  0.00    -0.275 N 
ATOM     25  C   UNL     1     -44.289  38.669  28.822  1.00  0.00     0.032 A 
ATOM     26  N   UNL     1     -44.558  40.659  27.770  1.00  0.00    -0.181 NA
ATOM     27  H   UNL     1     -43.839  37.986  29.530  1.00  0.00     0.084 H 
ATOM     28  C   UNL     1     -45.392  39.753  27.250  1.00  0.00     0.057 A 
ATOM     29  H   UNL     1     -46.050  40.049  26.443  1.00  0.00     0.087 H 
BRANCH  24  30
ATOM     30  C   UNL     1     -42.872  40.632  29.493  1.00  0.00     0.030 C 
ATOM     31  H   UNL     1     -42.475  39.939  30.238  1.00  0.00     0.048 H 
ATOM     32  H   UNL     1     -42.075  40.948  28.815  1.00  0.00     0.048 H 
ATOM     33  H   UNL     1     -43.322  41.496  29.989  1.00  0.00     0.048 H 
ENDBRANCH  24  30
ENDBRANCH  13  23
BRANCH  18  34
ATOM     34  N   UNL     1     -48.551  39.258  28.221  1.00  0.00    -0.383 N 
ATOM     35  H   UNL     1     -49.118  39.769  27.554  1.00  0.00     0.158 HD
ATOM     36  H   UNL     1     -47.618  39.621  28.369  1.00  0.00     0.158 HD
ENDBRANCH  18  34
ENDBRANCH   1  12
BRANCH   5  37
ATOM     37  O   UNL     1     -46.063  31.839  27.919  1.00  0.00    -0.388 OA
ATOM     38  H   UNL     1     -46.338  31.623  28.829  1.00  0.00     0.211 HD
ENDBRANCH   5  37
BRANCH   3  39
ATOM     39  C   UNL     1     -48.210  31.832  23.902  1.00  0.00    -0.044 C 
ATOM     40  H   UNL     1     -48.320  32.756  23.319  1.00  0.00     0.027 H 
ATOM     41  H   UNL     1     -49.217  31.571  24.253  1.00  0.00     0.027 H 
BRANCH  39  42
ATOM     42  C   UNL     1     -47.683  30.718  22.992  1.00  0.00    -0.027 C 
ATOM     43  H   UNL     1     -48.262  30.679  22.062  1.00  0.00     0.032 H 
ATOM     44  H   UNL     1     -46.646  30.916  22.701  1.00  0.00     0.032 H 
BRANCH  42  45
ATOM     45  C   UNL     1     -47.748  29.374  23.678  1.00  0.00    -0.046 A 
ATOM     46  C   UNL     1     -46.624  28.548  23.733  1.00  0.00    -0.058 A 
ATOM     47  C   UNL     1     -48.936  28.949  24.294  1.00  0.00    -0.033 A 
ATOM     48  C   UNL     1     -46.694  27.318  24.385  1.00  0.00    -0.053 A 
ATOM     49  H   UNL     1     -45.690  28.858  23.269  1.00  0.00     0.063 H 
ATOM     50  C   UNL     1     -49.033  27.729  24.951  1.00  0.00     0.073 A 
ATOM     51  H   UNL     1     -49.819  29.585  24.265  1.00  0.00     0.065 H 
ATOM     52  C   UNL     1     -47.892  26.905  24.993  1.00  0.00     0.000 A 
ATOM     53  H   UNL     1     -45.811  26.685  24.417  1.00  0.00     0.063 H 
ATOM     54  N   UNL     1     -50.199  27.376  25.523  1.00  0.00    -0.231 NA
ATOM     55  C   UNL     1     -47.999  25.678  25.655  1.00  0.00    -0.049 A 
ATOM     56  C   UNL     1     -50.282  26.195  26.155  1.00  0.00     0.124 A 
ATOM     57  C   UNL     1     -49.209  25.319  26.242  1.00  0.00    -0.019 A 
ATOM     58  H   UNL     1     -47.152  25.003  25.717  1.00  0.00     0.063 H 
ATOM     59  H   UNL     1     -49.301  24.370  26.757  1.00  0.00     0.066 H 
BRANCH  56  60
ATOM     60  N   UNL     1     -51.508  25.854  26.737  1.00  0.00    -0.384 N 
ATOM     61  H   UNL     1     -51.829  24.970  26.357  1.00  0.00     0.158 HD
ATOM     62  H   UNL     1     -51.391  25.750  27.740  1.00  0.00     0.158 HD
ENDBRANCH  56  60
ENDBRANCH  42  45
ENDBRANCH  39  42
ENDBRANCH   3  39
BRANCH   4  63
ATOM     63  O   UNL     1     -48.162  30.698  26.883  1.00  0.00    -0.390 OA
ATOM     64  H   UNL     1     -49.119  30.519  26.762  1.00  0.00     0.211 HD
ENDBRANCH   4  63
TORSDOF 10
ENDMDL
MODEL 7
REMARK VINA RESULT:      -9.4      1.854      2.499
REMARK SMILES Cn1cc(-c2cn([C@@H]3C[C@H](CCc4ccc5ccc(N)nc5c4)[C@@H](O)[C@H]3O)c3ncnc(N)c23)cn1
REMARK SMILES IDX 8 1 9 2 10 3 24 4 26 5 7 12 5 13 6 14 34 15 28 17 32 18
REMARK SMILES IDX 29 19 31 20 30 21 4 23 2 24 3 25 36 26 35 28 1 30 33 34
REMARK SMILES IDX 27 37 11 39 12 42 13 45 14 46 23 47 15 48 22 50 16 52 21 54
REMARK SMILES IDX 17 55 19 56 18 57 20 60 25 63
REMARK H PARENT 8 6 9 7 9 8 10 9 24 10 26 11 6 16 30 22 3 27 35 29 1 31 1 32
REMARK H PARENT 1 33 33 35 33 36 27 38 11 40 11 41 12 43 12 44 14 49 23 51
REMARK H PARENT 15 53 17 58 18 59 20 61 20 62 25 64
REMARK Flexibility Score: inf
ROOT
ATOM      1  C   UNL     1     -46.260  36.982  28.177  1.00  0.00     0.064 C 
ATOM      2  C   UNL     1     -45.728  35.870  27.259  1.00  0.00    -0.024 C 
ATOM      3  C   UNL     1     -46.931  34.954  27.020  1.00  0.00    -0.010 C 
ATOM      4  C   UNL     1     -48.080  35.959  26.897  1.00  0.00     0.085 C 
ATOM      5  C   UNL     1     -47.795  36.987  28.005  1.00  0.00     0.101 C 
ATOM      6  H   UNL     1     -46.025  36.707  29.215  1.00  0.00     0.056 H 
ATOM      7  H   UNL     1     -45.351  36.271  26.310  1.00  0.00     0.029 H 
ATOM      8  H   UNL     1     -44.899  35.329  27.729  1.00  0.00     0.029 H 
ATOM      9  H   UNL     1     -47.089  34.314  27.899  1.00  0.00     0.033 H 
ATOM     10  H   UNL     1     -48.071  36.436  25.911  1.00  0.00     0.063 H 
ATOM     11  H   UNL     1     -48.236  37.960  27.768  1.00  0.00     0.065 H 
ENDROOT
BRANCH   1  12
ATOM     12  N   UNL     1     -45.630  38.271  27.948  1.00  0.00    -0.326 N 
ATOM     13  C   UNL     1     -45.139  40.234  27.019  1.00  0.00     0.016 A 
ATOM     14  C   UNL     1     -45.966  39.131  26.933  1.00  0.00     0.015 A 
ATOM     15  C   UNL     1     -44.295  40.064  28.158  1.00  0.00     0.069 A 
ATOM     16  H   UNL     1     -46.742  38.883  26.219  1.00  0.00     0.083 H 
ATOM     17  C   UNL     1     -44.618  38.821  28.696  1.00  0.00     0.146 A 
ATOM     18  C   UNL     1     -43.298  40.787  28.837  1.00  0.00     0.136 A 
ATOM     19  N   UNL     1     -44.055  38.240  29.769  1.00  0.00    -0.218 NA
ATOM     20  N   UNL     1     -42.710  40.237  29.918  1.00  0.00    -0.219 NA
ATOM     21  C   UNL     1     -43.105  39.014  30.313  1.00  0.00     0.120 A 
ATOM     22  H   UNL     1     -42.598  38.609  31.183  1.00  0.00     0.106 H 
BRANCH  13  23
ATOM     23  C   UNL     1     -45.138  41.355  26.093  1.00  0.00     0.022 A 
ATOM     24  N   UNL     1     -45.543  43.205  25.002  1.00  0.00    -0.275 N 
ATOM     25  C   UNL     1     -45.999  42.424  26.022  1.00  0.00     0.032 A 
ATOM     26  N   UNL     1     -44.441  42.715  24.401  1.00  0.00    -0.181 NA
ATOM     27  H   UNL     1     -46.868  42.692  26.608  1.00  0.00     0.084 H 
ATOM     28  C   UNL     1     -44.187  41.592  25.081  1.00  0.00     0.057 A 
ATOM     29  H   UNL     1     -43.327  40.995  24.803  1.00  0.00     0.087 H 
BRANCH  24  30
ATOM     30  C   UNL     1     -46.111  44.448  24.540  1.00  0.00     0.030 C 
ATOM     31  H   UNL     1     -46.365  45.074  25.399  1.00  0.00     0.048 H 
ATOM     32  H   UNL     1     -45.370  44.955  23.916  1.00  0.00     0.048 H 
ATOM     33  H   UNL     1     -47.011  44.223  23.963  1.00  0.00     0.048 H 
ENDBRANCH  24  30
ENDBRANCH  13  23
BRANCH  18  34
ATOM     34  N   UNL     1     -42.888  42.073  28.509  1.00  0.00    -0.383 N 
ATOM     35  H   UNL     1     -41.879  42.096  28.409  1.00  0.00     0.158 HD
ATOM     36  H   UNL     1     -43.283  42.788  29.106  1.00  0.00     0.158 HD
ENDBRANCH  18  34
ENDBRANCH   1  12
BRANCH   5  37
ATOM     37  O   UNL     1     -48.425  36.530  29.221  1.00  0.00    -0.388 OA
ATOM     38  H   UNL     1     -49.364  36.787  29.164  1.00  0.00     0.211 HD
ENDBRANCH   5  37
BRANCH   3  39
ATOM     39  C   UNL     1     -46.727  34.057  25.792  1.00  0.00    -0.044 C 
ATOM     40  H   UNL     1     -45.727  34.255  25.384  1.00  0.00     0.027 H 
ATOM     41  H   UNL     1     -47.438  34.334  25.004  1.00  0.00     0.027 H 
BRANCH  39  42
ATOM     42  C   UNL     1     -46.863  32.563  26.101  1.00  0.00    -0.027 C 
ATOM     43  H   UNL     1     -45.893  32.144  26.396  1.00  0.00     0.032 H 
ATOM     44  H   UNL     1     -47.537  32.405  26.950  1.00  0.00     0.032 H 
BRANCH  42  45
ATOM     45  C   UNL     1     -47.394  31.803  24.909  1.00  0.00    -0.046 A 
ATOM     46  C   UNL     1     -46.549  31.449  23.856  1.00  0.00    -0.058 A 
ATOM     47  C   UNL     1     -48.743  31.417  24.859  1.00  0.00    -0.033 A 
ATOM     48  C   UNL     1     -47.050  30.733  22.771  1.00  0.00    -0.053 A 
ATOM     49  H   UNL     1     -45.498  31.731  23.875  1.00  0.00     0.063 H 
ATOM     50  C   UNL     1     -49.268  30.701  23.791  1.00  0.00     0.073 A 
ATOM     51  H   UNL     1     -49.413  31.680  25.675  1.00  0.00     0.065 H 
ATOM     52  C   UNL     1     -48.404  30.358  22.732  1.00  0.00     0.000 A 
ATOM     53  H   UNL     1     -46.380  30.468  21.957  1.00  0.00     0.063 H 
ATOM     54  N   UNL     1     -50.570  30.359  23.797  1.00  0.00    -0.231 NA
ATOM     55  C   UNL     1     -48.941  29.639  21.661  1.00  0.00    -0.049 A 
ATOM     56  C   UNL     1     -51.067  29.669  22.760  1.00  0.00     0.124 A 
ATOM     57  C   UNL     1     -50.288  29.291  21.675  1.00  0.00    -0.019 A 
ATOM     58  H   UNL     1     -48.321  29.349  20.818  1.00  0.00     0.063 H 
ATOM     59  H   UNL     1     -50.713  28.734  20.847  1.00  0.00     0.066 H 
BRANCH  56  60
ATOM     60  N   UNL     1     -52.424  29.330  22.795  1.00  0.00    -0.384 N 
ATOM     61  H   UNL     1     -52.789  29.297  21.848  1.00  0.00     0.158 HD
ATOM     62  H   UNL     1     -52.535  28.414  23.215  1.00  0.00     0.158 HD
ENDBRANCH  56  60
ENDBRANCH  42  45
ENDBRANCH  39  42
ENDBRANCH   3  39
BRANCH   4  63
ATOM     63  O   UNL     1     -49.343  35.338  27.095  1.00  0.00    -0.390 OA
ATOM     64  H   UNL     1     -49.971  36.078  27.239  1.00  0.00     0.211 HD
ENDBRANCH   4  63
TORSDOF 10
ENDMDL
