MODEL 1
REMARK VINA RESULT:     -11.3      0.000      0.000
REMARK SMILES O=C(NCc1ccc2cc(CN[C@@H]3CCC[C@H]3O)[nH]c2c1)c1cc(=O)n2ccccc2n1
REMARK SMILES IDX 5 1 6 2 7 3 8 4 9 5 10 6 19 7 20 8 21 9 4 15 3 18 1 19 2 20
REMARK SMILES IDX 22 22 23 23 32 24 24 25 31 27 25 28 26 29 30 30 27 31 29 32
REMARK SMILES IDX 28 34 11 38 12 41 13 43 14 44 17 45 15 47 16 50 18 56
REMARK H PARENT 6 10 7 11 9 12 19 13 21 14 4 16 4 17 3 21 23 26 30 33 27 35
REMARK H PARENT 29 36 28 37 11 39 11 40 12 42 13 46 14 48 14 49 17 51 15 52
REMARK H PARENT 15 53 16 54 16 55 18 57
REMARK Flexibility Score: inf
ROOT
ATOM      1  C   UNL     1     -48.080  35.035  26.684  1.00  0.00    -0.027 A 
ATOM      2  C   UNL     1     -46.793  35.094  26.136  1.00  0.00    -0.057 A 
ATOM      3  C   UNL     1     -46.280  34.035  25.373  1.00  0.00    -0.052 A 
ATOM      4  C   UNL     1     -47.071  32.889  25.166  1.00  0.00    -0.000 A 
ATOM      5  C   UNL     1     -46.874  31.663  24.476  1.00  0.00    -0.032 A 
ATOM      6  C   UNL     1     -48.006  30.889  24.643  1.00  0.00     0.030 A 
ATOM      7  N   UNL     1     -48.897  31.632  25.382  1.00  0.00    -0.357 N 
ATOM      8  C   UNL     1     -48.345  32.844  25.726  1.00  0.00     0.046 A 
ATOM      9  C   UNL     1     -48.876  33.892  26.486  1.00  0.00    -0.033 A 
ATOM     10  H   UNL     1     -46.169  35.970  26.296  1.00  0.00     0.063 H 
ATOM     11  H   UNL     1     -45.281  34.097  24.954  1.00  0.00     0.063 H 
ATOM     12  H   UNL     1     -45.985  31.371  23.931  1.00  0.00     0.065 H 
ATOM     13  H   UNL     1     -49.824  31.331  25.653  1.00  0.00     0.166 HD
ATOM     14  H   UNL     1     -49.871  33.826  26.918  1.00  0.00     0.065 H 
ENDROOT
BRANCH   1  15
ATOM     15  C   UNL     1     -48.605  36.170  27.526  1.00  0.00     0.043 C 
ATOM     16  H   UNL     1     -48.851  35.815  28.534  1.00  0.00     0.054 H 
ATOM     17  H   UNL     1     -49.525  36.576  27.092  1.00  0.00     0.054 H 
BRANCH  15  18
ATOM     18  N   UNL     1     -47.648  37.245  27.589  1.00  0.00    -0.347 N 
ATOM     19  O   UNL     1     -46.718  36.673  29.615  1.00  0.00    -0.268 OA
ATOM     20  C   UNL     1     -46.729  37.363  28.602  1.00  0.00     0.270 C 
ATOM     21  H   UNL     1     -47.464  37.795  26.756  1.00  0.00     0.164 HD
BRANCH  20  22
ATOM     22  C   UNL     1     -45.702  38.435  28.323  1.00  0.00     0.136 A 
ATOM     23  C   UNL     1     -45.838  39.104  27.176  1.00  0.00     0.035 A 
ATOM     24  N   UNL     1     -44.712  38.661  29.252  1.00  0.00    -0.225 NA
ATOM     25  C   UNL     1     -44.867  40.161  26.869  1.00  0.00     0.258 A 
ATOM     26  H   UNL     1     -46.622  38.918  26.453  1.00  0.00     0.071 H 
ATOM     27  C   UNL     1     -43.860  39.600  28.979  1.00  0.00     0.140 A 
ATOM     28  O   UNL     1     -44.982  40.780  25.811  1.00  0.00    -0.269 OA
ATOM     29  N   UNL     1     -43.883  40.373  27.824  1.00  0.00    -0.268 N 
ATOM     30  C   UNL     1     -42.773  39.886  29.960  1.00  0.00    -0.019 A 
ATOM     31  C   UNL     1     -42.930  41.362  27.605  1.00  0.00     0.014 A 
ATOM     32  C   UNL     1     -41.878  40.848  29.704  1.00  0.00    -0.057 A 
ATOM     33  H   UNL     1     -42.747  39.292  30.864  1.00  0.00     0.066 H 
ATOM     34  C   UNL     1     -41.956  41.612  28.489  1.00  0.00    -0.045 A 
ATOM     35  H   UNL     1     -43.008  41.928  26.679  1.00  0.00     0.082 H 
ATOM     36  H   UNL     1     -41.082  41.071  30.407  1.00  0.00     0.062 H 
ATOM     37  H   UNL     1     -41.218  42.387  28.308  1.00  0.00     0.064 H 
ENDBRANCH  20  22
ENDBRANCH  15  18
ENDBRANCH   1  15
BRANCH   6  38
ATOM     38  C   UNL     1     -48.335  29.516  24.168  1.00  0.00     0.036 C 
ATOM     39  H   UNL     1     -48.728  29.573  23.145  1.00  0.00     0.049 H 
ATOM     40  H   UNL     1     -47.439  28.887  24.114  1.00  0.00     0.049 H 
BRANCH  38  41
ATOM     41  N   UNL     1     -49.363  28.919  25.016  1.00  0.00    -0.306 NA
ATOM     42  H   UNL     1     -49.746  29.632  25.633  1.00  0.00     0.123 HD
BRANCH  41  43
ATOM     43  C   UNL     1     -48.876  27.774  25.789  1.00  0.00     0.033 C 
ATOM     44  C   UNL     1     -47.614  27.181  25.170  1.00  0.00    -0.035 C 
ATOM     45  C   UNL     1     -49.837  26.570  25.755  1.00  0.00     0.069 C 
ATOM     46  H   UNL     1     -48.690  28.039  26.839  1.00  0.00     0.049 H 
ATOM     47  C   UNL     1     -47.517  25.800  25.811  1.00  0.00    -0.049 C 
ATOM     48  H   UNL     1     -47.720  27.073  24.082  1.00  0.00     0.028 H 
ATOM     49  H   UNL     1     -46.725  27.788  25.363  1.00  0.00     0.028 H 
ATOM     50  C   UNL     1     -48.955  25.377  26.123  1.00  0.00    -0.025 C 
ATOM     51  H   UNL     1     -50.260  26.425  24.753  1.00  0.00     0.062 H 
ATOM     52  H   UNL     1     -47.011  25.084  25.156  1.00  0.00     0.027 H 
ATOM     53  H   UNL     1     -46.941  25.858  26.742  1.00  0.00     0.027 H 
ATOM     54  H   UNL     1     -49.056  25.104  27.180  1.00  0.00     0.029 H 
ATOM     55  H   UNL     1     -49.241  24.495  25.539  1.00  0.00     0.029 H 
BRANCH  45  56
ATOM     56  O   UNL     1     -50.904  26.707  26.679  1.00  0.00    -0.392 OA
ATOM     57  H   UNL     1     -51.505  25.950  26.552  1.00  0.00     0.211 HD
ENDBRANCH  45  56
ENDBRANCH  41  43
ENDBRANCH  38  41
ENDBRANCH   6  38
TORSDOF 7
ENDMDL
MODEL 2
REMARK VINA RESULT:     -10.8      1.575      2.171
REMARK SMILES O=C(NCc1ccc2cc(CN[C@@H]3CCC[C@H]3O)[nH]c2c1)c1cc(=O)n2ccccc2n1
REMARK SMILES IDX 5 1 6 2 7 3 8 4 9 5 10 6 19 7 20 8 21 9 4 15 3 18 1 19 2 20
REMARK SMILES IDX 22 22 23 23 32 24 24 25 31 27 25 28 26 29 30 30 27 31 29 32
REMARK SMILES IDX 28 34 11 38 12 41 13 43 14 44 17 45 15 47 16 50 18 56
REMARK H PARENT 6 10 7 11 9 12 19 13 21 14 4 16 4 17 3 21 23 26 30 33 27 35
REMARK H PARENT 29 36 28 37 11 39 11 40 12 42 13 46 14 48 14 49 17 51 15 52
REMARK H PARENT 15 53 16 54 16 55 18 57
REMARK Flexibility Score: inf
ROOT
ATOM      1  C   UNL     1     -47.861  35.174  26.583  1.00  0.00    -0.027 A 
ATOM      2  C   UNL     1     -46.628  35.042  25.931  1.00  0.00    -0.057 A 
ATOM      3  C   UNL     1     -46.282  33.858  25.266  1.00  0.00    -0.052 A 
ATOM      4  C   UNL     1     -47.187  32.780  25.263  1.00  0.00    -0.000 A 
ATOM      5  C   UNL     1     -47.162  31.469  24.715  1.00  0.00    -0.032 A 
ATOM      6  C   UNL     1     -48.339  30.835  25.063  1.00  0.00     0.030 A 
ATOM      7  N   UNL     1     -49.091  31.742  25.774  1.00  0.00    -0.357 N 
ATOM      8  C   UNL     1     -48.404  32.924  25.923  1.00  0.00     0.046 A 
ATOM      9  C   UNL     1     -48.770  34.100  26.589  1.00  0.00    -0.033 A 
ATOM     10  H   UNL     1     -45.917  35.865  25.934  1.00  0.00     0.063 H 
ATOM     11  H   UNL     1     -45.323  33.772  24.765  1.00  0.00     0.063 H 
ATOM     12  H   UNL     1     -46.355  31.031  24.141  1.00  0.00     0.065 H 
ATOM     13  H   UNL     1     -50.012  31.567  26.152  1.00  0.00     0.166 HD
ATOM     14  H   UNL     1     -49.724  34.182  27.103  1.00  0.00     0.065 H 
ENDROOT
BRANCH   1  15
ATOM     15  C   UNL     1     -48.206  36.444  27.318  1.00  0.00     0.043 C 
ATOM     16  H   UNL     1     -48.754  36.214  28.239  1.00  0.00     0.054 H 
ATOM     17  H   UNL     1     -48.853  37.079  26.704  1.00  0.00     0.054 H 
BRANCH  15  18
ATOM     18  N   UNL     1     -47.017  37.202  27.614  1.00  0.00    -0.347 N 
ATOM     19  O   UNL     1     -47.920  39.289  27.260  1.00  0.00    -0.268 OA
ATOM     20  C   UNL     1     -46.996  38.575  27.631  1.00  0.00     0.270 C 
ATOM     21  H   UNL     1     -46.233  36.741  28.065  1.00  0.00     0.164 HD
BRANCH  20  22
ATOM     22  C   UNL     1     -45.702  39.122  28.185  1.00  0.00     0.136 A 
ATOM     23  C   UNL     1     -45.217  38.518  29.272  1.00  0.00     0.035 A 
ATOM     24  N   UNL     1     -45.104  40.184  27.544  1.00  0.00    -0.225 NA
ATOM     25  C   UNL     1     -43.957  39.012  29.838  1.00  0.00     0.258 A 
ATOM     26  H   UNL     1     -45.696  37.682  29.767  1.00  0.00     0.071 H 
ATOM     27  C   UNL     1     -43.986  40.613  28.044  1.00  0.00     0.140 A 
ATOM     28  O   UNL     1     -43.505  38.464  30.843  1.00  0.00    -0.269 OA
ATOM     29  N   UNL     1     -43.371  40.078  29.171  1.00  0.00    -0.268 N 
ATOM     30  C   UNL     1     -43.299  41.758  27.380  1.00  0.00    -0.019 A 
ATOM     31  C   UNL     1     -42.172  40.597  29.646  1.00  0.00     0.014 A 
ATOM     32  C   UNL     1     -42.146  42.222  27.875  1.00  0.00    -0.057 A 
ATOM     33  H   UNL     1     -43.768  42.179  26.500  1.00  0.00     0.066 H 
ATOM     34  C   UNL     1     -41.561  41.626  29.045  1.00  0.00    -0.045 A 
ATOM     35  H   UNL     1     -41.747  40.130  30.532  1.00  0.00     0.082 H 
ATOM     36  H   UNL     1     -41.630  43.053  27.403  1.00  0.00     0.062 H 
ATOM     37  H   UNL     1     -40.624  42.023  29.424  1.00  0.00     0.064 H 
ENDBRANCH  20  22
ENDBRANCH  15  18
ENDBRANCH   1  15
BRANCH   6  38
ATOM     38  C   UNL     1     -48.830  29.456  24.787  1.00  0.00     0.036 C 
ATOM     39  H   UNL     1     -49.915  29.485  24.627  1.00  0.00     0.049 H 
ATOM     40  H   UNL     1     -48.398  29.056  23.863  1.00  0.00     0.049 H 
BRANCH  38  41
ATOM     41  N   UNL     1     -48.563  28.585  25.928  1.00  0.00    -0.306 NA
ATOM     42  H   UNL     1     -47.809  28.981  26.484  1.00  0.00     0.123 HD
BRANCH  41  43
ATOM     43  C   UNL     1     -48.253  27.207  25.540  1.00  0.00     0.033 C 
ATOM     44  C   UNL     1     -48.800  26.207  26.553  1.00  0.00    -0.035 C 
ATOM     45  C   UNL     1     -46.745  26.895  25.575  1.00  0.00     0.069 C 
ATOM     46  H   UNL     1     -48.632  26.971  24.536  1.00  0.00     0.049 H 
ATOM     47  C   UNL     1     -48.032  24.926  26.241  1.00  0.00    -0.049 C 
ATOM     48  H   UNL     1     -48.581  26.525  27.582  1.00  0.00     0.028 H 
ATOM     49  H   UNL     1     -49.883  26.070  26.468  1.00  0.00     0.028 H 
ATOM     50  C   UNL     1     -46.680  25.372  25.676  1.00  0.00    -0.025 C 
ATOM     51  H   UNL     1     -46.264  27.347  26.451  1.00  0.00     0.062 H 
ATOM     52  H   UNL     1     -47.920  24.295  27.128  1.00  0.00     0.027 H 
ATOM     53  H   UNL     1     -48.570  24.341  25.486  1.00  0.00     0.027 H 
ATOM     54  H   UNL     1     -46.497  24.903  24.702  1.00  0.00     0.029 H 
ATOM     55  H   UNL     1     -45.860  25.066  26.335  1.00  0.00     0.029 H 
BRANCH  45  56
ATOM     56  O   UNL     1     -46.074  27.348  24.410  1.00  0.00    -0.392 OA
ATOM     57  H   UNL     1     -46.704  27.886  23.895  1.00  0.00     0.211 HD
ENDBRANCH  45  56
ENDBRANCH  41  43
ENDBRANCH  38  41
ENDBRANCH   6  38
TORSDOF 7
ENDMDL
MODEL 3
REMARK VINA RESULT:     -10.6      2.243      3.628
REMARK SMILES O=C(NCc1ccc2cc(CN[C@@H]3CCC[C@H]3O)[nH]c2c1)c1cc(=O)n2ccccc2n1
REMARK SMILES IDX 5 1 6 2 7 3 8 4 9 5 10 6 19 7 20 8 21 9 4 15 3 18 1 19 2 20
REMARK SMILES IDX 22 22 23 23 32 24 24 25 31 27 25 28 26 29 30 30 27 31 29 32
REMARK SMILES IDX 28 34 11 38 12 41 13 43 14 44 17 45 15 47 16 50 18 56
REMARK H PARENT 6 10 7 11 9 12 19 13 21 14 4 16 4 17 3 21 23 26 30 33 27 35
REMARK H PARENT 29 36 28 37 11 39 11 40 12 42 13 46 14 48 14 49 17 51 15 52
REMARK H PARENT 15 53 16 54 16 55 18 57
REMARK Flexibility Score: inf
ROOT
ATOM      1  C   UNL     1     -46.664  36.655  28.272  1.00  0.00    -0.027 A 
ATOM      2  C   UNL     1     -48.049  36.540  28.095  1.00  0.00    -0.057 A 
ATOM      3  C   UNL     1     -48.594  35.546  27.272  1.00  0.00    -0.052 A 
ATOM      4  C   UNL     1     -47.732  34.656  26.603  1.00  0.00    -0.000 A 
ATOM      5  C   UNL     1     -47.932  33.568  25.711  1.00  0.00    -0.032 A 
ATOM      6  C   UNL     1     -46.693  33.076  25.348  1.00  0.00     0.030 A 
ATOM      7  N   UNL     1     -45.752  33.813  26.029  1.00  0.00    -0.357 N 
ATOM      8  C   UNL     1     -46.359  34.789  26.784  1.00  0.00     0.046 A 
ATOM      9  C   UNL     1     -45.796  35.773  27.606  1.00  0.00    -0.033 A 
ATOM     10  H   UNL     1     -48.725  37.228  28.598  1.00  0.00     0.063 H 
ATOM     11  H   UNL     1     -49.669  35.469  27.146  1.00  0.00     0.063 H 
ATOM     12  H   UNL     1     -48.887  33.198  25.357  1.00  0.00     0.065 H 
ATOM     13  H   UNL     1     -44.752  33.675  25.975  1.00  0.00     0.166 HD
ATOM     14  H   UNL     1     -44.718  35.860  27.722  1.00  0.00     0.065 H 
ENDROOT
BRANCH   1  15
ATOM     15  C   UNL     1     -46.093  37.749  29.139  1.00  0.00     0.043 C 
ATOM     16  H   UNL     1     -45.492  37.317  29.949  1.00  0.00     0.054 H 
ATOM     17  H   UNL     1     -46.897  38.329  29.604  1.00  0.00     0.054 H 
BRANCH  15  18
ATOM     18  N   UNL     1     -45.301  38.662  28.355  1.00  0.00    -0.347 N 
ATOM     19  O   UNL     1     -46.981  40.167  27.899  1.00  0.00    -0.268 OA
ATOM     20  C   UNL     1     -45.801  39.841  27.860  1.00  0.00     0.270 C 
ATOM     21  H   UNL     1     -44.290  38.579  28.366  1.00  0.00     0.164 HD
BRANCH  20  22
ATOM     22  C   UNL     1     -44.722  40.718  27.269  1.00  0.00     0.136 A 
ATOM     23  C   UNL     1     -43.599  40.838  27.980  1.00  0.00     0.035 A 
ATOM     24  N   UNL     1     -44.952  41.323  26.054  1.00  0.00    -0.225 NA
ATOM     25  C   UNL     1     -42.520  41.674  27.439  1.00  0.00     0.258 A 
ATOM     26  H   UNL     1     -43.429  40.356  28.934  1.00  0.00     0.071 H 
ATOM     27  C   UNL     1     -43.993  42.056  25.577  1.00  0.00     0.140 A 
ATOM     28  O   UNL     1     -41.483  41.794  28.090  1.00  0.00    -0.269 OA
ATOM     29  N   UNL     1     -42.774  42.267  26.211  1.00  0.00    -0.268 N 
ATOM     30  C   UNL     1     -44.194  42.726  24.260  1.00  0.00    -0.019 A 
ATOM     31  C   UNL     1     -41.797  43.070  25.633  1.00  0.00     0.014 A 
ATOM     32  C   UNL     1     -43.224  43.490  23.744  1.00  0.00    -0.057 A 
ATOM     33  H   UNL     1     -45.139  42.566  23.757  1.00  0.00     0.066 H 
ATOM     34  C   UNL     1     -41.984  43.670  24.451  1.00  0.00    -0.045 A 
ATOM     35  H   UNL     1     -40.867  43.192  26.185  1.00  0.00     0.082 H 
ATOM     36  H   UNL     1     -43.351  43.984  22.786  1.00  0.00     0.062 H 
ATOM     37  H   UNL     1     -41.214  44.294  24.008  1.00  0.00     0.064 H 
ENDBRANCH  20  22
ENDBRANCH  15  18
ENDBRANCH   1  15
BRANCH   6  38
ATOM     38  C   UNL     1     -46.307  31.973  24.424  1.00  0.00     0.036 C 
ATOM     39  H   UNL     1     -45.611  32.362  23.671  1.00  0.00     0.049 H 
ATOM     40  H   UNL     1     -45.767  31.180  24.954  1.00  0.00     0.049 H 
BRANCH  38  41
ATOM     41  N   UNL     1     -47.484  31.456  23.733  1.00  0.00    -0.306 NA
ATOM     42  H   UNL     1     -48.293  32.024  23.975  1.00  0.00     0.123 HD
BRANCH  41  43
ATOM     43  C   UNL     1     -47.740  30.041  24.014  1.00  0.00     0.033 C 
ATOM     44  C   UNL     1     -48.341  29.334  22.804  1.00  0.00    -0.035 C 
ATOM     45  C   UNL     1     -48.834  29.826  25.077  1.00  0.00     0.069 C 
ATOM     46  H   UNL     1     -46.831  29.519  24.342  1.00  0.00     0.049 H 
ATOM     47  C   UNL     1     -48.930  28.056  23.393  1.00  0.00    -0.049 C 
ATOM     48  H   UNL     1     -49.143  29.933  22.351  1.00  0.00     0.028 H 
ATOM     49  H   UNL     1     -47.599  29.125  22.027  1.00  0.00     0.028 H 
ATOM     50  C   UNL     1     -49.313  28.395  24.836  1.00  0.00    -0.025 C 
ATOM     51  H   UNL     1     -49.668  30.525  24.939  1.00  0.00     0.062 H 
ATOM     52  H   UNL     1     -49.787  27.701  22.813  1.00  0.00     0.027 H 
ATOM     53  H   UNL     1     -48.177  27.259  23.390  1.00  0.00     0.027 H 
ATOM     54  H   UNL     1     -48.852  27.686  25.534  1.00  0.00     0.029 H 
ATOM     55  H   UNL     1     -50.396  28.324  24.982  1.00  0.00     0.029 H 
BRANCH  45  56
ATOM     56  O   UNL     1     -48.338  29.972  26.398  1.00  0.00    -0.392 OA
ATOM     57  H   UNL     1     -48.145  29.080  26.742  1.00  0.00     0.211 HD
ENDBRANCH  45  56
ENDBRANCH  41  43
ENDBRANCH  38  41
ENDBRANCH   6  38
TORSDOF 7
ENDMDL
MODEL 4
REMARK VINA RESULT:     -10.4      1.693     11.531
REMARK SMILES O=C(NCc1ccc2cc(CN[C@@H]3CCC[C@H]3O)[nH]c2c1)c1cc(=O)n2ccccc2n1
REMARK SMILES IDX 5 1 6 2 7 3 8 4 9 5 10 6 19 7 20 8 21 9 4 15 3 18 1 19 2 20
REMARK SMILES IDX 22 22 23 23 32 24 24 25 31 27 25 28 26 29 30 30 27 31 29 32
REMARK SMILES IDX 28 34 11 38 12 41 13 43 14 44 17 45 15 47 16 50 18 56
REMARK H PARENT 6 10 7 11 9 12 19 13 21 14 4 16 4 17 3 21 23 26 30 33 27 35
REMARK H PARENT 29 36 28 37 11 39 11 40 12 42 13 46 14 48 14 49 17 51 15 52
REMARK H PARENT 15 53 16 54 16 55 18 57
REMARK Flexibility Score: inf
ROOT
ATOM      1  C   UNL     1     -46.968  33.631  25.578  1.00  0.00    -0.027 A 
ATOM      2  C   UNL     1     -48.308  33.801  25.946  1.00  0.00    -0.057 A 
ATOM      3  C   UNL     1     -48.688  34.792  26.862  1.00  0.00    -0.052 A 
ATOM      4  C   UNL     1     -47.702  35.622  27.428  1.00  0.00    -0.000 A 
ATOM      5  C   UNL     1     -47.727  36.689  28.366  1.00  0.00    -0.032 A 
ATOM      6  C   UNL     1     -46.428  37.114  28.568  1.00  0.00     0.030 A 
ATOM      7  N   UNL     1     -45.624  36.358  27.746  1.00  0.00    -0.357 N 
ATOM      8  C   UNL     1     -46.374  35.434  27.057  1.00  0.00     0.046 A 
ATOM      9  C   UNL     1     -45.975  34.453  26.141  1.00  0.00    -0.033 A 
ATOM     10  H   UNL     1     -49.078  33.160  25.523  1.00  0.00     0.063 H 
ATOM     11  H   UNL     1     -49.732  34.912  27.136  1.00  0.00     0.063 H 
ATOM     12  H   UNL     1     -48.606  37.090  28.857  1.00  0.00     0.065 H 
ATOM     13  H   UNL     1     -44.621  36.451  27.666  1.00  0.00     0.166 HD
ATOM     14  H   UNL     1     -44.929  34.323  25.876  1.00  0.00     0.065 H 
ENDROOT
BRANCH   1  15
ATOM     15  C   UNL     1     -46.572  32.541  24.614  1.00  0.00     0.043 C 
ATOM     16  H   UNL     1     -45.489  32.375  24.652  1.00  0.00     0.054 H 
ATOM     17  H   UNL     1     -46.821  32.829  23.587  1.00  0.00     0.054 H 
BRANCH  15  18
ATOM     18  N   UNL     1     -47.281  31.321  24.903  1.00  0.00    -0.347 N 
ATOM     19  O   UNL     1     -48.273  31.079  22.840  1.00  0.00    -0.268 OA
ATOM     20  C   UNL     1     -48.018  30.649  23.960  1.00  0.00     0.270 C 
ATOM     21  H   UNL     1     -47.045  30.795  25.738  1.00  0.00     0.164 HD
BRANCH  20  22
ATOM     22  C   UNL     1     -48.473  29.294  24.446  1.00  0.00     0.136 A 
ATOM     23  C   UNL     1     -49.786  29.055  24.400  1.00  0.00     0.035 A 
ATOM     24  N   UNL     1     -47.527  28.398  24.890  1.00  0.00    -0.225 NA
ATOM     25  C   UNL     1     -50.271  27.746  24.854  1.00  0.00     0.258 A 
ATOM     26  H   UNL     1     -50.521  29.767  24.047  1.00  0.00     0.071 H 
ATOM     27  C   UNL     1     -47.960  27.240  25.285  1.00  0.00     0.140 A 
ATOM     28  O   UNL     1     -51.480  27.520  24.820  1.00  0.00    -0.269 OA
ATOM     29  N   UNL     1     -49.297  26.860  25.291  1.00  0.00    -0.268 N 
ATOM     30  C   UNL     1     -46.970  26.235  25.769  1.00  0.00    -0.019 A 
ATOM     31  C   UNL     1     -49.680  25.598  25.733  1.00  0.00     0.014 A 
ATOM     32  C   UNL     1     -47.387  25.033  26.184  1.00  0.00    -0.057 A 
ATOM     33  H   UNL     1     -45.926  26.519  25.765  1.00  0.00     0.066 H 
ATOM     34  C   UNL     1     -48.787  24.701  26.167  1.00  0.00    -0.045 A 
ATOM     35  H   UNL     1     -50.744  25.368  25.711  1.00  0.00     0.082 H 
ATOM     36  H   UNL     1     -46.682  24.287  26.537  1.00  0.00     0.062 H 
ATOM     37  H   UNL     1     -49.096  23.718  26.508  1.00  0.00     0.064 H 
ENDBRANCH  20  22
ENDBRANCH  15  18
ENDBRANCH   1  15
BRANCH   6  38
ATOM     38  C   UNL     1     -45.867  38.170  29.457  1.00  0.00     0.036 C 
ATOM     39  H   UNL     1     -46.391  38.144  30.421  1.00  0.00     0.049 H 
ATOM     40  H   UNL     1     -44.811  37.983  29.681  1.00  0.00     0.049 H 
BRANCH  38  41
ATOM     41  N   UNL     1     -46.068  39.489  28.866  1.00  0.00    -0.306 NA
ATOM     42  H   UNL     1     -47.056  39.620  28.662  1.00  0.00     0.123 HD
BRANCH  41  43
ATOM     43  C   UNL     1     -45.258  39.710  27.665  1.00  0.00     0.033 C 
ATOM     44  C   UNL     1     -43.931  40.383  28.005  1.00  0.00    -0.035 C 
ATOM     45  C   UNL     1     -45.884  40.728  26.694  1.00  0.00     0.069 C 
ATOM     46  H   UNL     1     -45.076  38.776  27.118  1.00  0.00     0.049 H 
ATOM     47  C   UNL     1     -43.447  40.917  26.661  1.00  0.00    -0.049 C 
ATOM     48  H   UNL     1     -44.079  41.220  28.701  1.00  0.00     0.028 H 
ATOM     49  H   UNL     1     -43.213  39.692  28.458  1.00  0.00     0.028 H 
ATOM     50  C   UNL     1     -44.708  41.205  25.842  1.00  0.00    -0.025 C 
ATOM     51  H   UNL     1     -46.323  41.577  27.232  1.00  0.00     0.062 H 
ATOM     52  H   UNL     1     -42.822  41.807  26.781  1.00  0.00     0.027 H 
ATOM     53  H   UNL     1     -42.844  40.157  26.150  1.00  0.00     0.027 H 
ATOM     54  H   UNL     1     -44.666  40.690  24.875  1.00  0.00     0.029 H 
ATOM     55  H   UNL     1     -44.800  42.276  25.627  1.00  0.00     0.029 H 
BRANCH  45  56
ATOM     56  O   UNL     1     -46.888  40.145  25.877  1.00  0.00    -0.392 OA
ATOM     57  H   UNL     1     -47.023  40.731  25.109  1.00  0.00     0.211 HD
ENDBRANCH  45  56
ENDBRANCH  41  43
ENDBRANCH  38  41
ENDBRANCH   6  38
TORSDOF 7
ENDMDL
MODEL 5
REMARK VINA RESULT:     -10.4      1.860      2.567
REMARK SMILES O=C(NCc1ccc2cc(CN[C@@H]3CCC[C@H]3O)[nH]c2c1)c1cc(=O)n2ccccc2n1
REMARK SMILES IDX 5 1 6 2 7 3 8 4 9 5 10 6 19 7 20 8 21 9 4 15 3 18 1 19 2 20
REMARK SMILES IDX 22 22 23 23 32 24 24 25 31 27 25 28 26 29 30 30 27 31 29 32
REMARK SMILES IDX 28 34 11 38 12 41 13 43 14 44 17 45 15 47 16 50 18 56
REMARK H PARENT 6 10 7 11 9 12 19 13 21 14 4 16 4 17 3 21 23 26 30 33 27 35
REMARK H PARENT 29 36 28 37 11 39 11 40 12 42 13 46 14 48 14 49 17 51 15 52
REMARK H PARENT 15 53 16 54 16 55 18 57
REMARK Flexibility Score: inf
ROOT
ATOM      1  C   UNL     1     -46.456  35.138  27.743  1.00  0.00    -0.027 A 
ATOM      2  C   UNL     1     -47.683  35.672  27.332  1.00  0.00    -0.057 A 
ATOM      3  C   UNL     1     -48.629  34.884  26.661  1.00  0.00    -0.052 A 
ATOM      4  C   UNL     1     -48.332  33.535  26.388  1.00  0.00    -0.000 A 
ATOM      5  C   UNL     1     -49.030  32.481  25.740  1.00  0.00    -0.032 A 
ATOM      6  C   UNL     1     -48.218  31.363  25.742  1.00  0.00     0.030 A 
ATOM      7  N   UNL     1     -47.064  31.704  26.410  1.00  0.00    -0.357 N 
ATOM      8  C   UNL     1     -47.104  33.023  26.796  1.00  0.00     0.046 A 
ATOM      9  C   UNL     1     -46.149  33.793  27.471  1.00  0.00    -0.033 A 
ATOM     10  H   UNL     1     -47.921  36.715  27.529  1.00  0.00     0.063 H 
ATOM     11  H   UNL     1     -49.576  35.313  26.350  1.00  0.00     0.063 H 
ATOM     12  H   UNL     1     -50.018  32.543  25.300  1.00  0.00     0.065 H 
ATOM     13  H   UNL     1     -46.285  31.083  26.582  1.00  0.00     0.166 HD
ATOM     14  H   UNL     1     -45.194  33.369  27.770  1.00  0.00     0.065 H 
ENDROOT
BRANCH   1  15
ATOM     15  C   UNL     1     -45.438  36.008  28.438  1.00  0.00     0.043 C 
ATOM     16  H   UNL     1     -44.434  35.585  28.320  1.00  0.00     0.054 H 
ATOM     17  H   UNL     1     -45.646  36.058  29.511  1.00  0.00     0.054 H 
BRANCH  15  18
ATOM     18  N   UNL     1     -45.482  37.354  27.927  1.00  0.00    -0.347 N 
ATOM     19  O   UNL     1     -44.518  38.376  29.750  1.00  0.00    -0.268 OA
ATOM     20  C   UNL     1     -44.946  38.422  28.602  1.00  0.00     0.270 C 
ATOM     21  H   UNL     1     -45.682  37.506  26.943  1.00  0.00     0.164 HD
BRANCH  20  22
ATOM     22  C   UNL     1     -44.920  39.677  27.763  1.00  0.00     0.136 A 
ATOM     23  C   UNL     1     -46.093  40.095  27.281  1.00  0.00     0.035 A 
ATOM     24  N   UNL     1     -43.715  40.310  27.554  1.00  0.00    -0.225 NA
ATOM     25  C   UNL     1     -46.115  41.316  26.467  1.00  0.00     0.258 A 
ATOM     26  H   UNL     1     -47.035  39.590  27.453  1.00  0.00     0.071 H 
ATOM     27  C   UNL     1     -43.741  41.392  26.840  1.00  0.00     0.140 A 
ATOM     28  O   UNL     1     -47.191  41.706  26.016  1.00  0.00    -0.269 OA
ATOM     29  N   UNL     1     -44.890  41.938  26.277  1.00  0.00    -0.268 N 
ATOM     30  C   UNL     1     -42.460  42.115  26.592  1.00  0.00    -0.019 A 
ATOM     31  C   UNL     1     -44.832  43.103  25.521  1.00  0.00     0.014 A 
ATOM     32  C   UNL     1     -42.455  43.233  25.857  1.00  0.00    -0.057 A 
ATOM     33  H   UNL     1     -41.560  41.701  27.028  1.00  0.00     0.066 H 
ATOM     34  C   UNL     1     -43.678  43.746  25.302  1.00  0.00    -0.045 A 
ATOM     35  H   UNL     1     -45.769  43.473  25.110  1.00  0.00     0.082 H 
ATOM     36  H   UNL     1     -41.533  43.775  25.668  1.00  0.00     0.062 H 
ATOM     37  H   UNL     1     -43.645  44.656  24.710  1.00  0.00     0.064 H 
ENDBRANCH  20  22
ENDBRANCH  15  18
ENDBRANCH   1  15
BRANCH   6  38
ATOM     38  C   UNL     1     -48.424  29.999  25.181  1.00  0.00     0.036 C 
ATOM     39  H   UNL     1     -49.404  29.956  24.689  1.00  0.00     0.049 H 
ATOM     40  H   UNL     1     -47.685  29.772  24.404  1.00  0.00     0.049 H 
BRANCH  38  41
ATOM     41  N   UNL     1     -48.408  29.004  26.249  1.00  0.00    -0.306 NA
ATOM     42  H   UNL     1     -47.556  29.110  26.795  1.00  0.00     0.123 HD
BRANCH  41  43
ATOM     43  C   UNL     1     -48.539  27.630  25.756  1.00  0.00     0.033 C 
ATOM     44  C   UNL     1     -49.907  27.046  26.094  1.00  0.00    -0.035 C 
ATOM     45  C   UNL     1     -47.593  26.642  26.465  1.00  0.00     0.069 C 
ATOM     46  H   UNL     1     -48.360  27.565  24.674  1.00  0.00     0.049 H 
ATOM     47  C   UNL     1     -49.707  25.544  25.917  1.00  0.00    -0.049 C 
ATOM     48  H   UNL     1     -50.182  27.259  27.137  1.00  0.00     0.028 H 
ATOM     49  H   UNL     1     -50.702  27.435  25.451  1.00  0.00     0.028 H 
ATOM     50  C   UNL     1     -48.231  25.275  26.225  1.00  0.00    -0.025 C 
ATOM     51  H   UNL     1     -47.538  26.844  27.541  1.00  0.00     0.062 H 
ATOM     52  H   UNL     1     -50.374  24.968  26.565  1.00  0.00     0.027 H 
ATOM     53  H   UNL     1     -49.924  25.256  24.881  1.00  0.00     0.027 H 
ATOM     54  H   UNL     1     -47.756  24.740  25.394  1.00  0.00     0.029 H 
ATOM     55  H   UNL     1     -48.125  24.641  27.112  1.00  0.00     0.029 H 
BRANCH  45  56
ATOM     56  O   UNL     1     -46.278  26.680  25.933  1.00  0.00    -0.392 OA
ATOM     57  H   UNL     1     -46.115  25.829  25.485  1.00  0.00     0.211 HD
ENDBRANCH  45  56
ENDBRANCH  41  43
ENDBRANCH  38  41
ENDBRANCH   6  38
TORSDOF 7
ENDMDL
MODEL 6
REMARK VINA RESULT:     -10.1      2.608      3.220
REMARK SMILES O=C(NCc1ccc2cc(CN[C@@H]3CCC[C@H]3O)[nH]c2c1)c1cc(=O)n2ccccc2n1
REMARK SMILES IDX 5 1 6 2 7 3 8 4 9 5 10 6 19 7 20 8 21 9 4 15 3 18 1 19 2 20
REMARK SMILES IDX 22 22 23 23 32 24 24 25 31 27 25 28 26 29 30 30 27 31 29 32
REMARK SMILES IDX 28 34 11 38 12 41 13 43 14 44 17 45 15 47 16 50 18 56
REMARK H PARENT 6 10 7 11 9 12 19 13 21 14 4 16 4 17 3 21 23 26 30 33 27 35
REMARK H PARENT 29 36 28 37 11 39 11 40 12 42 13 46 14 48 14 49 17 51 15 52
REMARK H PARENT 15 53 16 54 16 55 18 57
REMARK Flexibility Score: inf
ROOT
ATOM      1  C   UNL     1     -47.673  35.696  27.539  1.00  0.00    -0.027 A 
ATOM      2  C   UNL     1     -46.355  35.539  27.092  1.00  0.00    -0.057 A 
ATOM      3  C   UNL     1     -46.015  34.533  26.177  1.00  0.00    -0.052 A 
ATOM      4  C   UNL     1     -47.016  33.660  25.711  1.00  0.00    -0.000 A 
ATOM      5  C   UNL     1     -47.027  32.556  24.816  1.00  0.00    -0.032 A 
ATOM      6  C   UNL     1     -48.314  32.056  24.764  1.00  0.00     0.030 A 
ATOM      7  N   UNL     1     -49.088  32.855  25.574  1.00  0.00    -0.357 N 
ATOM      8  C   UNL     1     -48.318  33.825  26.172  1.00  0.00     0.046 A 
ATOM      9  C   UNL     1     -48.678  34.826  27.082  1.00  0.00    -0.033 A 
ATOM     10  H   UNL     1     -45.571  36.202  27.452  1.00  0.00     0.063 H 
ATOM     11  H   UNL     1     -44.990  34.425  25.839  1.00  0.00     0.063 H 
ATOM     12  H   UNL     1     -46.173  32.157  24.281  1.00  0.00     0.065 H 
ATOM     13  H   UNL     1     -50.082  32.742  25.726  1.00  0.00     0.166 HD
ATOM     14  H   UNL     1     -49.702  34.927  27.432  1.00  0.00     0.065 H 
ENDROOT
BRANCH   1  15
ATOM     15  C   UNL     1     -48.016  36.766  28.546  1.00  0.00     0.043 C 
ATOM     16  H   UNL     1     -48.116  36.329  29.546  1.00  0.00     0.054 H 
ATOM     17  H   UNL     1     -48.974  37.233  28.297  1.00  0.00     0.054 H 
BRANCH  15  18
ATOM     18  N   UNL     1     -47.018  37.806  28.547  1.00  0.00    -0.347 N 
ATOM     19  O   UNL     1     -45.777  37.000  30.309  1.00  0.00    -0.268 OA
ATOM     20  C   UNL     1     -45.934  37.793  29.388  1.00  0.00     0.270 C 
ATOM     21  H   UNL     1     -46.958  38.437  27.754  1.00  0.00     0.164 HD
BRANCH  20  22
ATOM     22  C   UNL     1     -44.927  38.865  29.042  1.00  0.00     0.136 A 
ATOM     23  C   UNL     1     -43.931  39.048  29.912  1.00  0.00     0.035 A 
ATOM     24  N   UNL     1     -45.087  39.570  27.871  1.00  0.00    -0.225 NA
ATOM     25  C   UNL     1     -42.925  40.073  29.610  1.00  0.00     0.258 A 
ATOM     26  H   UNL     1     -43.815  38.486  30.830  1.00  0.00     0.071 H 
ATOM     27  C   UNL     1     -44.191  40.470  27.605  1.00  0.00     0.140 A 
ATOM     28  O   UNL     1     -42.005  40.251  30.409  1.00  0.00    -0.269 OA
ATOM     29  N   UNL     1     -43.104  40.764  28.421  1.00  0.00    -0.268 N 
ATOM     30  C   UNL     1     -44.319  41.255  26.343  1.00  0.00    -0.019 A 
ATOM     31  C   UNL     1     -42.188  41.748  28.065  1.00  0.00     0.014 A 
ATOM     32  C   UNL     1     -43.411  42.191  26.044  1.00  0.00    -0.057 A 
ATOM     33  H   UNL     1     -45.160  41.032  25.700  1.00  0.00     0.066 H 
ATOM     34  C   UNL     1     -42.310  42.449  26.932  1.00  0.00    -0.045 A 
ATOM     35  H   UNL     1     -41.362  41.926  28.752  1.00  0.00     0.082 H 
ATOM     36  H   UNL     1     -43.487  42.771  25.129  1.00  0.00     0.062 H 
ATOM     37  H   UNL     1     -41.587  43.214  26.663  1.00  0.00     0.064 H 
ENDBRANCH  20  22
ENDBRANCH  15  18
ENDBRANCH   1  15
BRANCH   6  38
ATOM     38  C   UNL     1     -48.890  30.901  24.021  1.00  0.00     0.036 C 
ATOM     39  H   UNL     1     -48.555  29.968  24.491  1.00  0.00     0.049 H 
ATOM     40  H   UNL     1     -49.984  30.895  24.080  1.00  0.00     0.049 H 
BRANCH  38  41
ATOM     41  N   UNL     1     -48.424  30.906  22.638  1.00  0.00    -0.306 NA
ATOM     42  H   UNL     1     -49.224  30.838  22.013  1.00  0.00     0.123 HD
BRANCH  41  43
ATOM     43  C   UNL     1     -47.453  29.846  22.354  1.00  0.00     0.033 C 
ATOM     44  C   UNL     1     -47.236  28.951  23.570  1.00  0.00    -0.035 C 
ATOM     45  C   UNL     1     -46.031  30.381  22.103  1.00  0.00     0.069 C 
ATOM     46  H   UNL     1     -47.752  29.239  21.489  1.00  0.00     0.049 H 
ATOM     47  C   UNL     1     -45.932  28.226  23.252  1.00  0.00    -0.049 C 
ATOM     48  H   UNL     1     -47.111  29.547  24.484  1.00  0.00     0.028 H 
ATOM     49  H   UNL     1     -48.065  28.255  23.735  1.00  0.00     0.028 H 
ATOM     50  C   UNL     1     -45.126  29.178  22.364  1.00  0.00    -0.025 C 
ATOM     51  H   UNL     1     -45.781  31.193  22.797  1.00  0.00     0.062 H 
ATOM     52  H   UNL     1     -45.389  27.952  24.162  1.00  0.00     0.027 H 
ATOM     53  H   UNL     1     -46.142  27.300  22.703  1.00  0.00     0.027 H 
ATOM     54  H   UNL     1     -44.829  28.678  21.434  1.00  0.00     0.029 H 
ATOM     55  H   UNL     1     -44.203  29.493  22.863  1.00  0.00     0.029 H 
BRANCH  45  56
ATOM     56  O   UNL     1     -45.861  30.856  20.776  1.00  0.00    -0.392 OA
ATOM     57  H   UNL     1     -45.799  30.079  20.190  1.00  0.00     0.211 HD
ENDBRANCH  45  56
ENDBRANCH  41  43
ENDBRANCH  38  41
ENDBRANCH   6  38
TORSDOF 7
ENDMDL
