MODEL 1
REMARK VINA RESULT:     -10.5      0.000      0.000
REMARK SMILES CNc1ccc2ccc(OCc3cncc(-n4cc([C@H]5CCCO5)c5c(N)ncnc54)c3)cc2n1
REMARK SMILES IDX 11 1 10 4 9 5 3 6 4 7 35 8 5 9 34 11 6 12 33 14 7 15 8 17
REMARK SMILES IDX 2 20 1 22 12 26 13 27 32 28 14 29 16 31 15 33 17 35 18 36
REMARK SMILES IDX 31 37 19 38 25 40 30 41 26 42 29 43 28 44 20 46 21 47 24 48
REMARK SMILES IDX 22 50 23 53 27 58
REMARK H PARENT 11 2 11 3 4 10 5 13 33 16 7 18 8 19 2 21 1 23 1 24 1 25 13 30
REMARK H PARENT 32 32 15 34 18 39 29 45 20 49 21 51 21 52 22 54 22 55 23 56
REMARK H PARENT 23 57 27 59 27 60
REMARK Flexibility Score: inf
ROOT
ATOM      1  C   UNL     1     -46.785  36.604  26.937  1.00  0.00     0.115 C 
ATOM      2  H   UNL     1     -45.881  36.993  26.452  1.00  0.00     0.076 H 
ATOM      3  H   UNL     1     -47.614  36.999  26.339  1.00  0.00     0.076 H 
ENDROOT
BRANCH   1   4
ATOM      4  O   UNL     1     -46.782  37.111  28.275  1.00  0.00    -0.489 OA
BRANCH   4   5
ATOM      5  C   UNL     1     -45.746  37.935  28.625  1.00  0.00     0.122 A 
ATOM      6  C   UNL     1     -42.768  41.583  27.941  1.00  0.00     0.126 A 
ATOM      7  C   UNL     1     -42.101  41.330  29.130  1.00  0.00    -0.019 A 
ATOM      8  N   UNL     1     -43.803  40.828  27.521  1.00  0.00    -0.231 NA
ATOM      9  C   UNL     1     -42.521  40.269  29.926  1.00  0.00    -0.049 A 
ATOM     10  H   UNL     1     -41.250  41.929  29.430  1.00  0.00     0.066 H 
ATOM     11  C   UNL     1     -44.212  39.796  28.285  1.00  0.00     0.076 A 
ATOM     12  C   UNL     1     -43.594  39.477  29.510  1.00  0.00     0.001 A 
ATOM     13  H   UNL     1     -42.000  40.062  30.856  1.00  0.00     0.063 H 
ATOM     14  C   UNL     1     -45.275  39.007  27.860  1.00  0.00     0.007 A 
ATOM     15  C   UNL     1     -44.042  38.387  30.271  1.00  0.00    -0.049 A 
ATOM     16  H   UNL     1     -45.718  39.249  26.899  1.00  0.00     0.069 H 
ATOM     17  C   UNL     1     -45.111  37.616  29.822  1.00  0.00    -0.019 A 
ATOM     18  H   UNL     1     -43.563  38.132  31.213  1.00  0.00     0.063 H 
ATOM     19  H   UNL     1     -45.459  36.772  30.413  1.00  0.00     0.066 H 
BRANCH   6  20
ATOM     20  N   UNL     1     -42.388  42.610  27.078  1.00  0.00    -0.373 N 
ATOM     21  H   UNL     1     -42.132  42.140  26.211  1.00  0.00     0.161 HD
BRANCH  20  22
ATOM     22  C   UNL     1     -43.378  43.653  26.876  1.00  0.00     0.005 C 
ATOM     23  H   UNL     1     -43.636  44.150  27.817  1.00  0.00     0.045 H 
ATOM     24  H   UNL     1     -42.962  44.415  26.210  1.00  0.00     0.045 H 
ATOM     25  H   UNL     1     -44.289  43.263  26.411  1.00  0.00     0.045 H 
ENDBRANCH  20  22
ENDBRANCH   6  20
ENDBRANCH   4   5
ENDBRANCH   1   4
BRANCH   1  26
ATOM     26  C   UNL     1     -46.732  35.102  26.913  1.00  0.00     0.010 A 
ATOM     27  C   UNL     1     -46.169  34.383  27.956  1.00  0.00     0.034 A 
ATOM     28  C   UNL     1     -47.296  34.374  25.858  1.00  0.00    -0.028 A 
ATOM     29  N   UNL     1     -46.115  33.034  27.997  1.00  0.00    -0.262 NA
ATOM     30  H   UNL     1     -45.734  34.884  28.818  1.00  0.00     0.084 H 
ATOM     31  C   UNL     1     -47.295  32.976  25.873  1.00  0.00     0.066 A 
ATOM     32  H   UNL     1     -47.727  34.935  25.036  1.00  0.00     0.065 H 
ATOM     33  C   UNL     1     -46.681  32.364  26.961  1.00  0.00     0.051 A 
ATOM     34  H   UNL     1     -46.633  31.288  27.086  1.00  0.00     0.086 H 
BRANCH  31  35
ATOM     35  N   UNL     1     -47.914  32.205  24.839  1.00  0.00    -0.299 N 
ATOM     36  C   UNL     1     -49.282  32.094  24.631  1.00  0.00     0.018 A 
ATOM     37  C   UNL     1     -47.287  31.446  23.854  1.00  0.00     0.150 A 
ATOM     38  C   UNL     1     -49.538  31.291  23.532  1.00  0.00     0.012 A 
ATOM     39  H   UNL     1     -49.983  32.578  25.295  1.00  0.00     0.083 H 
ATOM     40  C   UNL     1     -48.259  30.889  23.031  1.00  0.00     0.067 A 
ATOM     41  N   UNL     1     -45.959  31.292  23.688  1.00  0.00    -0.218 NA
ATOM     42  C   UNL     1     -47.805  30.109  21.952  1.00  0.00     0.136 A 
ATOM     43  C   UNL     1     -45.645  30.534  22.632  1.00  0.00     0.120 A 
ATOM     44  N   UNL     1     -46.482  29.945  21.765  1.00  0.00    -0.219 NA
ATOM     45  H   UNL     1     -44.585  30.380  22.459  1.00  0.00     0.106 H 
BRANCH  38  46
ATOM     46  C   UNL     1     -50.868  30.877  22.953  1.00  0.00     0.085 C 
ATOM     47  C   UNL     1     -52.103  31.296  23.741  1.00  0.00    -0.020 C 
ATOM     48  O   UNL     1     -51.036  31.462  21.639  1.00  0.00    -0.373 OA
ATOM     49  H   UNL     1     -50.858  29.786  22.837  1.00  0.00     0.066 H 
ATOM     50  C   UNL     1     -52.419  32.651  23.157  1.00  0.00    -0.027 C 
ATOM     51  H   UNL     1     -52.929  30.613  23.506  1.00  0.00     0.030 H 
ATOM     52  H   UNL     1     -51.986  31.303  24.827  1.00  0.00     0.030 H 
ATOM     53  C   UNL     1     -52.079  32.445  21.698  1.00  0.00     0.048 C 
ATOM     54  H   UNL     1     -51.764  33.415  23.593  1.00  0.00     0.029 H 
ATOM     55  H   UNL     1     -53.455  32.964  23.311  1.00  0.00     0.029 H 
ATOM     56  H   UNL     1     -51.744  33.365  21.212  1.00  0.00     0.057 H 
ATOM     57  H   UNL     1     -52.938  32.052  21.144  1.00  0.00     0.057 H 
ENDBRANCH  38  46
BRANCH  42  58
ATOM     58  N   UNL     1     -48.654  29.509  21.029  1.00  0.00    -0.383 N 
ATOM     59  H   UNL     1     -49.511  29.217  21.483  1.00  0.00     0.158 HD
ATOM     60  H   UNL     1     -48.184  28.789  20.481  1.00  0.00     0.158 HD
ENDBRANCH  42  58
ENDBRANCH  31  35
ENDBRANCH   1  26
TORSDOF 8
ENDMDL
MODEL 2
REMARK VINA RESULT:     -10.1      2.511     10.825
REMARK SMILES CNc1ccc2ccc(OCc3cncc(-n4cc([C@H]5CCCO5)c5c(N)ncnc54)c3)cc2n1
REMARK SMILES IDX 11 1 10 4 9 5 3 6 4 7 35 8 5 9 34 11 6 12 33 14 7 15 8 17
REMARK SMILES IDX 2 20 1 22 12 26 13 27 32 28 14 29 16 31 15 33 17 35 18 36
REMARK SMILES IDX 31 37 19 38 25 40 30 41 26 42 29 43 28 44 20 46 21 47 24 48
REMARK SMILES IDX 22 50 23 53 27 58
REMARK H PARENT 11 2 11 3 4 10 5 13 33 16 7 18 8 19 2 21 1 23 1 24 1 25 13 30
REMARK H PARENT 32 32 15 34 18 39 29 45 20 49 21 51 21 52 22 54 22 55 23 56
REMARK H PARENT 23 57 27 59 27 60
REMARK Flexibility Score: inf
ROOT
ATOM      1  C   UNL     1     -46.355  34.430  26.966  1.00  0.00     0.115 C 
ATOM      2  H   UNL     1     -45.997  34.366  25.930  1.00  0.00     0.076 H 
ATOM      3  H   UNL     1     -45.496  34.130  27.577  1.00  0.00     0.076 H 
ENDROOT
BRANCH   1   4
ATOM      4  O   UNL     1     -47.454  33.520  27.076  1.00  0.00    -0.489 OA
BRANCH   4   5
ATOM      5  C   UNL     1     -47.576  32.571  26.096  1.00  0.00     0.122 A 
ATOM      6  C   UNL     1     -46.553  30.635  21.872  1.00  0.00     0.126 A 
ATOM      7  C   UNL     1     -47.456  29.600  22.068  1.00  0.00    -0.019 A 
ATOM      8  N   UNL     1     -46.362  31.608  22.785  1.00  0.00    -0.231 NA
ATOM      9  C   UNL     1     -48.181  29.555  23.254  1.00  0.00    -0.049 A 
ATOM     10  H   UNL     1     -47.617  28.849  21.305  1.00  0.00     0.066 H 
ATOM     11  C   UNL     1     -47.066  31.572  23.935  1.00  0.00     0.076 A 
ATOM     12  C   UNL     1     -47.996  30.552  24.215  1.00  0.00     0.001 A 
ATOM     13  H   UNL     1     -48.894  28.750  23.413  1.00  0.00     0.063 H 
ATOM     14  C   UNL     1     -46.882  32.573  24.882  1.00  0.00     0.007 A 
ATOM     15  C   UNL     1     -48.717  30.557  25.419  1.00  0.00    -0.049 A 
ATOM     16  H   UNL     1     -46.185  33.367  24.635  1.00  0.00     0.069 H 
ATOM     17  C   UNL     1     -48.510  31.572  26.351  1.00  0.00    -0.019 A 
ATOM     18  H   UNL     1     -49.441  29.777  25.636  1.00  0.00     0.063 H 
ATOM     19  H   UNL     1     -49.067  31.574  27.284  1.00  0.00     0.066 H 
BRANCH   6  20
ATOM     20  N   UNL     1     -45.811  30.762  20.699  1.00  0.00    -0.373 N 
ATOM     21  H   UNL     1     -46.051  29.938  20.148  1.00  0.00     0.161 HD
BRANCH  20  22
ATOM     22  C   UNL     1     -46.010  32.000  19.967  1.00  0.00     0.005 C 
ATOM     23  H   UNL     1     -46.855  32.571  20.364  1.00  0.00     0.045 H 
ATOM     24  H   UNL     1     -45.117  32.625  20.074  1.00  0.00     0.045 H 
ATOM     25  H   UNL     1     -46.164  31.819  18.898  1.00  0.00     0.045 H 
ENDBRANCH  20  22
ENDBRANCH   6  20
ENDBRANCH   4   5
ENDBRANCH   1   4
BRANCH   1  26
ATOM     26  C   UNL     1     -46.779  35.847  27.238  1.00  0.00     0.010 A 
ATOM     27  C   UNL     1     -48.078  36.151  27.614  1.00  0.00     0.034 A 
ATOM     28  C   UNL     1     -45.862  36.904  27.169  1.00  0.00    -0.028 A 
ATOM     29  N   UNL     1     -48.507  37.401  27.892  1.00  0.00    -0.262 NA
ATOM     30  H   UNL     1     -48.836  35.377  27.709  1.00  0.00     0.084 H 
ATOM     31  C   UNL     1     -46.252  38.209  27.482  1.00  0.00     0.066 A 
ATOM     32  H   UNL     1     -44.848  36.668  26.864  1.00  0.00     0.065 H 
ATOM     33  C   UNL     1     -47.587  38.397  27.825  1.00  0.00     0.051 A 
ATOM     34  H   UNL     1     -47.997  39.362  28.099  1.00  0.00     0.086 H 
BRANCH  31  35
ATOM     35  N   UNL     1     -45.325  39.299  27.478  1.00  0.00    -0.299 N 
ATOM     36  C   UNL     1     -45.280  40.310  26.528  1.00  0.00     0.018 A 
ATOM     37  C   UNL     1     -44.323  39.565  28.408  1.00  0.00     0.150 A 
ATOM     38  C   UNL     1     -44.280  41.217  26.837  1.00  0.00     0.012 A 
ATOM     39  H   UNL     1     -45.950  40.303  25.681  1.00  0.00     0.083 H 
ATOM     40  C   UNL     1     -43.679  40.744  28.047  1.00  0.00     0.067 A 
ATOM     41  N   UNL     1     -44.033  38.836  29.501  1.00  0.00    -0.218 NA
ATOM     42  C   UNL     1     -42.650  41.189  28.896  1.00  0.00     0.136 A 
ATOM     43  C   UNL     1     -43.041  39.354  30.234  1.00  0.00     0.120 A 
ATOM     44  N   UNL     1     -42.345  40.477  29.996  1.00  0.00    -0.219 NA
ATOM     45  H   UNL     1     -42.770  38.798  31.125  1.00  0.00     0.106 H 
BRANCH  38  46
ATOM     46  C   UNL     1     -43.856  42.451  26.081  1.00  0.00     0.085 C 
ATOM     47  C   UNL     1     -44.622  42.748  24.797  1.00  0.00    -0.020 C 
ATOM     48  O   UNL     1     -44.034  43.623  26.912  1.00  0.00    -0.373 OA
ATOM     49  H   UNL     1     -42.786  42.357  25.857  1.00  0.00     0.066 H 
ATOM     50  C   UNL     1     -45.765  43.602  25.289  1.00  0.00    -0.027 C 
ATOM     51  H   UNL     1     -43.992  43.355  24.134  1.00  0.00     0.030 H 
ATOM     52  H   UNL     1     -44.942  41.872  24.229  1.00  0.00     0.030 H 
ATOM     53  C   UNL     1     -45.095  44.421  26.369  1.00  0.00     0.048 C 
ATOM     54  H   UNL     1     -46.550  42.972  25.724  1.00  0.00     0.029 H 
ATOM     55  H   UNL     1     -46.219  44.219  24.509  1.00  0.00     0.029 H 
ATOM     56  H   UNL     1     -45.786  44.706  27.168  1.00  0.00     0.057 H 
ATOM     57  H   UNL     1     -44.648  45.331  25.955  1.00  0.00     0.057 H 
ENDBRANCH  38  46
BRANCH  42  58
ATOM     58  N   UNL     1     -41.933  42.361  28.682  1.00  0.00    -0.383 N 
ATOM     59  H   UNL     1     -41.815  42.862  29.554  1.00  0.00     0.158 HD
ATOM     60  H   UNL     1     -42.311  42.912  27.912  1.00  0.00     0.158 HD
ENDBRANCH  42  58
ENDBRANCH  31  35
ENDBRANCH   1  26
TORSDOF 8
ENDMDL
MODEL 3
REMARK VINA RESULT:     -10.1      2.784     11.200
REMARK SMILES CNc1ccc2ccc(OCc3cncc(-n4cc([C@H]5CCCO5)c5c(N)ncnc54)c3)cc2n1
REMARK SMILES IDX 11 1 10 4 9 5 3 6 4 7 35 8 5 9 34 11 6 12 33 14 7 15 8 17
REMARK SMILES IDX 2 20 1 22 12 26 13 27 32 28 14 29 16 31 15 33 17 35 18 36
REMARK SMILES IDX 31 37 19 38 25 40 30 41 26 42 29 43 28 44 20 46 21 47 24 48
REMARK SMILES IDX 22 50 23 53 27 58
REMARK H PARENT 11 2 11 3 4 10 5 13 33 16 7 18 8 19 2 21 1 23 1 24 1 25 13 30
REMARK H PARENT 32 32 15 34 18 39 29 45 20 49 21 51 21 52 22 54 22 55 23 56
REMARK H PARENT 23 57 27 59 27 60
REMARK Flexibility Score: inf
ROOT
ATOM      1  C   UNL     1     -47.064  34.658  27.370  1.00  0.00     0.115 C 
ATOM      2  H   UNL     1     -46.224  34.509  26.680  1.00  0.00     0.076 H 
ATOM      3  H   UNL     1     -46.732  34.212  28.315  1.00  0.00     0.076 H 
ENDROOT
BRANCH   1   4
ATOM      4  O   UNL     1     -48.186  33.975  26.803  1.00  0.00    -0.489 OA
BRANCH   4   5
ATOM      5  C   UNL     1     -47.917  32.916  25.977  1.00  0.00     0.122 A 
ATOM      6  C   UNL     1     -48.614  28.517  24.302  1.00  0.00     0.126 A 
ATOM      7  C   UNL     1     -47.565  28.638  23.402  1.00  0.00    -0.019 A 
ATOM      8  N   UNL     1     -48.954  29.511  25.148  1.00  0.00    -0.231 NA
ATOM      9  C   UNL     1     -46.848  29.828  23.358  1.00  0.00    -0.049 A 
ATOM     10  H   UNL     1     -47.288  27.813  22.756  1.00  0.00     0.066 H 
ATOM     11  C   UNL     1     -48.259  30.665  25.114  1.00  0.00     0.076 A 
ATOM     12  C   UNL     1     -47.187  30.871  24.223  1.00  0.00     0.001 A 
ATOM     13  H   UNL     1     -46.023  29.928  22.658  1.00  0.00     0.063 H 
ATOM     14  C   UNL     1     -48.597  31.695  25.985  1.00  0.00     0.007 A 
ATOM     15  C   UNL     1     -46.481  32.084  24.227  1.00  0.00    -0.049 A 
ATOM     16  H   UNL     1     -49.405  31.506  26.684  1.00  0.00     0.069 H 
ATOM     17  C   UNL     1     -46.844  33.098  25.109  1.00  0.00    -0.019 A 
ATOM     18  H   UNL     1     -45.648  32.244  23.548  1.00  0.00     0.063 H 
ATOM     19  H   UNL     1     -46.298  34.039  25.110  1.00  0.00     0.066 H 
BRANCH   6  20
ATOM     20  N   UNL     1     -49.361  27.347  24.423  1.00  0.00    -0.373 N 
ATOM     21  H   UNL     1     -48.748  26.610  24.075  1.00  0.00     0.161 HD
BRANCH  20  22
ATOM     22  C   UNL     1     -49.869  27.067  25.754  1.00  0.00     0.005 C 
ATOM     23  H   UNL     1     -50.838  26.558  25.715  1.00  0.00     0.045 H 
ATOM     24  H   UNL     1     -49.172  26.398  26.269  1.00  0.00     0.045 H 
ATOM     25  H   UNL     1     -49.962  27.978  26.353  1.00  0.00     0.045 H 
ENDBRANCH  20  22
ENDBRANCH   6  20
ENDBRANCH   4   5
ENDBRANCH   1   4
BRANCH   1  26
ATOM     26  C   UNL     1     -47.321  36.134  27.498  1.00  0.00     0.010 A 
ATOM     27  C   UNL     1     -48.584  36.624  27.791  1.00  0.00     0.034 A 
ATOM     28  C   UNL     1     -46.280  37.064  27.375  1.00  0.00    -0.028 A 
ATOM     29  N   UNL     1     -48.866  37.937  27.939  1.00  0.00    -0.262 NA
ATOM     30  H   UNL     1     -49.433  35.957  27.923  1.00  0.00     0.084 H 
ATOM     31  C   UNL     1     -46.517  38.430  27.554  1.00  0.00     0.066 A 
ATOM     32  H   UNL     1     -45.294  36.682  27.134  1.00  0.00     0.065 H 
ATOM     33  C   UNL     1     -47.829  38.806  27.823  1.00  0.00     0.051 A 
ATOM     34  H   UNL     1     -48.128  39.834  27.994  1.00  0.00     0.086 H 
BRANCH  31  35
ATOM     35  N   UNL     1     -45.466  39.397  27.492  1.00  0.00    -0.299 N 
ATOM     36  C   UNL     1     -45.304  40.344  26.491  1.00  0.00     0.018 A 
ATOM     37  C   UNL     1     -44.432  39.588  28.407  1.00  0.00     0.150 A 
ATOM     38  C   UNL     1     -44.199  41.138  26.752  1.00  0.00     0.012 A 
ATOM     39  H   UNL     1     -45.976  40.375  25.646  1.00  0.00     0.083 H 
ATOM     40  C   UNL     1     -43.653  40.659  27.985  1.00  0.00     0.067 A 
ATOM     41  N   UNL     1     -44.225  38.886  29.537  1.00  0.00    -0.218 NA
ATOM     42  C   UNL     1     -42.571  41.019  28.809  1.00  0.00     0.136 A 
ATOM     43  C   UNL     1     -43.172  39.317  30.240  1.00  0.00     0.120 A 
ATOM     44  N   UNL     1     -42.347  40.333  29.944  1.00  0.00    -0.219 NA
ATOM     45  H   UNL     1     -42.965  38.779  31.159  1.00  0.00     0.106 H 
BRANCH  38  46
ATOM     46  C   UNL     1     -43.634  42.270  25.932  1.00  0.00     0.085 C 
ATOM     47  C   UNL     1     -44.369  42.593  24.636  1.00  0.00    -0.020 C 
ATOM     48  O   UNL     1     -43.660  43.496  26.701  1.00  0.00    -0.373 OA
ATOM     49  H   UNL     1     -42.586  42.035  25.711  1.00  0.00     0.066 H 
ATOM     50  C   UNL     1     -45.395  43.605  25.086  1.00  0.00    -0.027 C 
ATOM     51  H   UNL     1     -43.675  43.084  23.941  1.00  0.00     0.030 H 
ATOM     52  H   UNL     1     -44.798  41.735  24.115  1.00  0.00     0.030 H 
ATOM     53  C   UNL     1     -44.620  44.390  26.120  1.00  0.00     0.048 C 
ATOM     54  H   UNL     1     -46.246  43.099  25.555  1.00  0.00     0.029 H 
ATOM     55  H   UNL     1     -45.776  44.232  24.275  1.00  0.00     0.029 H 
ATOM     56  H   UNL     1     -45.264  44.798  26.905  1.00  0.00     0.057 H 
ATOM     57  H   UNL     1     -44.068  45.216  25.659  1.00  0.00     0.057 H 
ENDBRANCH  38  46
BRANCH  42  58
ATOM     58  N   UNL     1     -41.718  42.082  28.533  1.00  0.00    -0.383 N 
ATOM     59  H   UNL     1     -41.570  42.635  29.368  1.00  0.00     0.158 HD
ATOM     60  H   UNL     1     -42.008  42.608  27.709  1.00  0.00     0.158 HD
ENDBRANCH  42  58
ENDBRANCH  31  35
ENDBRANCH   1  26
TORSDOF 8
ENDMDL
MODEL 4
REMARK VINA RESULT:      -9.8      2.709      3.657
REMARK SMILES CNc1ccc2ccc(OCc3cncc(-n4cc([C@H]5CCCO5)c5c(N)ncnc54)c3)cc2n1
REMARK SMILES IDX 11 1 10 4 9 5 3 6 4 7 35 8 5 9 34 11 6 12 33 14 7 15 8 17
REMARK SMILES IDX 2 20 1 22 12 26 13 27 32 28 14 29 16 31 15 33 17 35 18 36
REMARK SMILES IDX 31 37 19 38 25 40 30 41 26 42 29 43 28 44 20 46 21 47 24 48
REMARK SMILES IDX 22 50 23 53 27 58
REMARK H PARENT 11 2 11 3 4 10 5 13 33 16 7 18 8 19 2 21 1 23 1 24 1 25 13 30
REMARK H PARENT 32 32 15 34 18 39 29 45 20 49 21 51 21 52 22 54 22 55 23 56
REMARK H PARENT 23 57 27 59 27 60
REMARK Flexibility Score: inf
ROOT
ATOM      1  C   UNL     1     -48.744  35.619  27.292  1.00  0.00     0.115 C 
ATOM      2  H   UNL     1     -48.801  36.549  26.712  1.00  0.00     0.076 H 
ATOM      3  H   UNL     1     -49.787  35.354  27.498  1.00  0.00     0.076 H 
ENDROOT
BRANCH   1   4
ATOM      4  O   UNL     1     -48.007  35.923  28.481  1.00  0.00    -0.489 OA
BRANCH   4   5
ATOM      5  C   UNL     1     -47.074  36.921  28.396  1.00  0.00     0.122 A 
ATOM      6  C   UNL     1     -45.174  40.843  26.485  1.00  0.00     0.126 A 
ATOM      7  C   UNL     1     -44.118  40.833  27.385  1.00  0.00    -0.019 A 
ATOM      8  N   UNL     1     -46.141  39.904  26.500  1.00  0.00    -0.231 NA
ATOM      9  C   UNL     1     -44.060  39.829  28.345  1.00  0.00    -0.049 A 
ATOM     10  H   UNL     1     -43.334  41.578  27.332  1.00  0.00     0.066 H 
ATOM     11  C   UNL     1     -46.088  38.925  27.425  1.00  0.00     0.076 A 
ATOM     12  C   UNL     1     -45.055  38.848  28.379  1.00  0.00     0.001 A 
ATOM     13  H   UNL     1     -43.234  39.812  29.050  1.00  0.00     0.063 H 
ATOM     14  C   UNL     1     -47.077  37.947  27.446  1.00  0.00     0.007 A 
ATOM     15  C   UNL     1     -45.029  37.806  29.319  1.00  0.00    -0.049 A 
ATOM     16  H   UNL     1     -47.847  38.006  26.684  1.00  0.00     0.069 H 
ATOM     17  C   UNL     1     -46.035  36.842  29.318  1.00  0.00    -0.019 A 
ATOM     18  H   UNL     1     -44.230  37.738  30.051  1.00  0.00     0.063 H 
ATOM     19  H   UNL     1     -46.016  36.036  30.048  1.00  0.00     0.066 H 
BRANCH   6  20
ATOM     20  N   UNL     1     -45.285  41.801  25.479  1.00  0.00    -0.373 N 
ATOM     21  H   UNL     1     -46.007  42.441  25.807  1.00  0.00     0.161 HD
BRANCH  20  22
ATOM     22  C   UNL     1     -44.051  42.483  25.129  1.00  0.00     0.005 C 
ATOM     23  H   UNL     1     -43.741  43.181  25.913  1.00  0.00     0.045 H 
ATOM     24  H   UNL     1     -43.253  41.742  25.021  1.00  0.00     0.045 H 
ATOM     25  H   UNL     1     -44.140  43.020  24.179  1.00  0.00     0.045 H 
ENDBRANCH  20  22
ENDBRANCH   6  20
ENDBRANCH   4   5
ENDBRANCH   1   4
BRANCH   1  26
ATOM     26  C   UNL     1     -48.047  34.579  26.459  1.00  0.00     0.010 A 
ATOM     27  C   UNL     1     -46.730  34.740  26.057  1.00  0.00     0.034 A 
ATOM     28  C   UNL     1     -48.690  33.387  26.101  1.00  0.00    -0.028 A 
ATOM     29  N   UNL     1     -46.049  33.829  25.329  1.00  0.00    -0.262 NA
ATOM     30  H   UNL     1     -46.163  35.631  26.320  1.00  0.00     0.084 H 
ATOM     31  C   UNL     1     -48.015  32.400  25.378  1.00  0.00     0.066 A 
ATOM     32  H   UNL     1     -49.724  33.265  26.405  1.00  0.00     0.065 H 
ATOM     33  C   UNL     1     -46.703  32.682  25.011  1.00  0.00     0.051 A 
ATOM     34  H   UNL     1     -46.079  31.987  24.461  1.00  0.00     0.086 H 
BRANCH  31  35
ATOM     35  N   UNL     1     -48.625  31.149  25.048  1.00  0.00    -0.299 N 
ATOM     36  C   UNL     1     -48.501  29.978  25.783  1.00  0.00     0.018 A 
ATOM     37  C   UNL     1     -49.455  30.868  23.965  1.00  0.00     0.150 A 
ATOM     38  C   UNL     1     -49.239  28.962  25.197  1.00  0.00     0.012 A 
ATOM     39  H   UNL     1     -47.875  29.940  26.662  1.00  0.00     0.083 H 
ATOM     40  C   UNL     1     -49.858  29.539  24.043  1.00  0.00     0.067 A 
ATOM     41  N   UNL     1     -49.843  31.733  23.010  1.00  0.00    -0.218 NA
ATOM     42  C   UNL     1     -50.732  29.082  23.040  1.00  0.00     0.136 A 
ATOM     43  C   UNL     1     -50.674  31.190  22.112  1.00  0.00     0.120 A 
ATOM     44  N   UNL     1     -51.135  29.931  22.077  1.00  0.00    -0.219 NA
ATOM     45  H   UNL     1     -51.012  31.850  21.321  1.00  0.00     0.106 H 
BRANCH  38  46
ATOM     46  C   UNL     1     -49.380  27.525  25.633  1.00  0.00     0.085 C 
ATOM     47  C   UNL     1     -48.611  26.496  24.813  1.00  0.00    -0.020 C 
ATOM     48  O   UNL     1     -48.895  27.372  26.989  1.00  0.00    -0.373 OA
ATOM     49  H   UNL     1     -50.448  27.276  25.628  1.00  0.00     0.066 H 
ATOM     50  C   UNL     1     -47.279  26.443  25.520  1.00  0.00    -0.027 C 
ATOM     51  H   UNL     1     -49.099  25.518  24.913  1.00  0.00     0.030 H 
ATOM     52  H   UNL     1     -48.533  26.712  23.745  1.00  0.00     0.030 H 
ATOM     53  C   UNL     1     -47.693  26.589  26.967  1.00  0.00     0.048 C 
ATOM     54  H   UNL     1     -46.655  27.291  25.217  1.00  0.00     0.029 H 
ATOM     55  H   UNL     1     -46.719  25.523  25.330  1.00  0.00     0.029 H 
ATOM     56  H   UNL     1     -46.925  27.078  27.575  1.00  0.00     0.057 H 
ATOM     57  H   UNL     1     -47.922  25.616  27.413  1.00  0.00     0.057 H 
ENDBRANCH  38  46
BRANCH  42  58
ATOM     58  N   UNL     1     -51.241  27.789  22.998  1.00  0.00    -0.383 N 
ATOM     59  H   UNL     1     -50.670  27.171  23.562  1.00  0.00     0.158 HD
ATOM     60  H   UNL     1     -51.414  27.471  22.045  1.00  0.00     0.158 HD
ENDBRANCH  42  58
ENDBRANCH  31  35
ENDBRANCH   1  26
TORSDOF 8
ENDMDL
MODEL 5
REMARK VINA RESULT:      -9.5      2.094      2.748
REMARK SMILES CNc1ccc2ccc(OCc3cncc(-n4cc([C@H]5CCCO5)c5c(N)ncnc54)c3)cc2n1
REMARK SMILES IDX 11 1 10 4 9 5 3 6 4 7 35 8 5 9 34 11 6 12 33 14 7 15 8 17
REMARK SMILES IDX 2 20 1 22 12 26 13 27 32 28 14 29 16 31 15 33 17 35 18 36
REMARK SMILES IDX 31 37 19 38 25 40 30 41 26 42 29 43 28 44 20 46 21 47 24 48
REMARK SMILES IDX 22 50 23 53 27 58
REMARK H PARENT 11 2 11 3 4 10 5 13 33 16 7 18 8 19 2 21 1 23 1 24 1 25 13 30
REMARK H PARENT 32 32 15 34 18 39 29 45 20 49 21 51 21 52 22 54 22 55 23 56
REMARK H PARENT 23 57 27 59 27 60
REMARK Flexibility Score: inf
ROOT
ATOM      1  C   UNL     1     -46.166  35.979  27.073  1.00  0.00     0.115 C 
ATOM      2  H   UNL     1     -45.421  35.455  27.685  1.00  0.00     0.076 H 
ATOM      3  H   UNL     1     -45.631  36.258  26.159  1.00  0.00     0.076 H 
ENDROOT
BRANCH   1   4
ATOM      4  O   UNL     1     -46.591  37.117  27.831  1.00  0.00    -0.489 OA
BRANCH   4   5
ATOM      5  C   UNL     1     -45.611  37.949  28.304  1.00  0.00     0.122 A 
ATOM      6  C   UNL     1     -42.739  41.736  28.064  1.00  0.00     0.126 A 
ATOM      7  C   UNL     1     -42.140  41.423  29.276  1.00  0.00    -0.019 A 
ATOM      8  N   UNL     1     -43.716  40.977  27.527  1.00  0.00    -0.231 NA
ATOM      9  C   UNL     1     -42.569  40.296  29.969  1.00  0.00    -0.049 A 
ATOM     10  H   UNL     1     -41.334  42.029  29.671  1.00  0.00     0.066 H 
ATOM     11  C   UNL     1     -44.132  39.881  28.192  1.00  0.00     0.076 A 
ATOM     12  C   UNL     1     -43.582  39.499  29.431  1.00  0.00     0.001 A 
ATOM     13  H   UNL     1     -42.101  40.043  30.916  1.00  0.00     0.063 H 
ATOM     14  C   UNL     1     -45.135  39.087  27.645  1.00  0.00     0.007 A 
ATOM     15  C   UNL     1     -44.035  38.344  30.086  1.00  0.00    -0.049 A 
ATOM     16  H   UNL     1     -45.524  39.380  26.675  1.00  0.00     0.069 H 
ATOM     17  C   UNL     1     -45.043  37.569  29.515  1.00  0.00    -0.019 A 
ATOM     18  H   UNL     1     -43.608  38.040  31.038  1.00  0.00     0.063 H 
ATOM     19  H   UNL     1     -45.395  36.675  30.024  1.00  0.00     0.066 H 
BRANCH   6  20
ATOM     20  N   UNL     1     -42.345  42.832  27.300  1.00  0.00    -0.373 N 
ATOM     21  H   UNL     1     -41.964  42.430  26.445  1.00  0.00     0.161 HD
BRANCH  20  22
ATOM     22  C   UNL     1     -43.381  43.816  27.040  1.00  0.00     0.005 C 
ATOM     23  H   UNL     1     -43.033  44.832  27.250  1.00  0.00     0.045 H 
ATOM     24  H   UNL     1     -43.651  43.778  25.980  1.00  0.00     0.045 H 
ATOM     25  H   UNL     1     -44.287  43.615  27.622  1.00  0.00     0.045 H 
ENDBRANCH  20  22
ENDBRANCH   6  20
ENDBRANCH   4   5
ENDBRANCH   1   4
BRANCH   1  26
ATOM     26  C   UNL     1     -47.307  35.038  26.800  1.00  0.00     0.010 A 
ATOM     27  C   UNL     1     -48.614  35.380  27.111  1.00  0.00     0.034 A 
ATOM     28  C   UNL     1     -47.093  33.803  26.174  1.00  0.00    -0.028 A 
ATOM     29  N   UNL     1     -49.678  34.584  26.866  1.00  0.00    -0.262 NA
ATOM     30  H   UNL     1     -48.854  36.334  27.576  1.00  0.00     0.084 H 
ATOM     31  C   UNL     1     -48.167  32.962  25.871  1.00  0.00     0.066 A 
ATOM     32  H   UNL     1     -46.070  33.530  25.942  1.00  0.00     0.065 H 
ATOM     33  C   UNL     1     -49.431  33.400  26.250  1.00  0.00     0.051 A 
ATOM     34  H   UNL     1     -50.337  32.838  26.053  1.00  0.00     0.086 H 
BRANCH  31  35
ATOM     35  N   UNL     1     -47.987  31.721  25.181  1.00  0.00    -0.299 N 
ATOM     36  C   UNL     1     -48.643  30.535  25.479  1.00  0.00     0.018 A 
ATOM     37  C   UNL     1     -47.155  31.467  24.093  1.00  0.00     0.150 A 
ATOM     38  C   UNL     1     -48.255  29.536  24.601  1.00  0.00     0.012 A 
ATOM     39  H   UNL     1     -49.328  30.476  26.312  1.00  0.00     0.083 H 
ATOM     40  C   UNL     1     -47.312  30.141  23.708  1.00  0.00     0.067 A 
ATOM     41  N   UNL     1     -46.349  32.354  23.478  1.00  0.00    -0.218 NA
ATOM     42  C   UNL     1     -46.566  29.710  22.597  1.00  0.00     0.136 A 
ATOM     43  C   UNL     1     -45.692  31.835  22.436  1.00  0.00     0.120 A 
ATOM     44  N   UNL     1     -45.757  30.580  21.966  1.00  0.00    -0.219 NA
ATOM     45  H   UNL     1     -45.028  32.513  21.910  1.00  0.00     0.106 H 
BRANCH  38  46
ATOM     46  C   UNL     1     -48.687  28.092  24.562  1.00  0.00     0.085 C 
ATOM     47  C   UNL     1     -47.676  27.074  25.075  1.00  0.00    -0.020 C 
ATOM     48  O   UNL     1     -49.865  27.909  25.384  1.00  0.00    -0.373 OA
ATOM     49  H   UNL     1     -48.959  27.851  23.526  1.00  0.00     0.066 H 
ATOM     50  C   UNL     1     -48.007  26.997  26.545  1.00  0.00    -0.027 C 
ATOM     51  H   UNL     1     -47.884  26.098  24.618  1.00  0.00     0.030 H 
ATOM     52  H   UNL     1     -46.629  27.311  24.873  1.00  0.00     0.030 H 
ATOM     53  C   UNL     1     -49.515  27.118  26.528  1.00  0.00     0.048 C 
ATOM     54  H   UNL     1     -47.566  27.847  27.079  1.00  0.00     0.029 H 
ATOM     55  H   UNL     1     -47.661  26.077  27.025  1.00  0.00     0.029 H 
ATOM     56  H   UNL     1     -49.907  27.589  27.434  1.00  0.00     0.057 H 
ATOM     57  H   UNL     1     -49.989  26.138  26.412  1.00  0.00     0.057 H 
ENDBRANCH  38  46
BRANCH  42  58
ATOM     58  N   UNL     1     -46.637  28.421  22.079  1.00  0.00    -0.383 N 
ATOM     59  H   UNL     1     -45.971  27.820  22.549  1.00  0.00     0.158 HD
ATOM     60  H   UNL     1     -46.590  28.409  21.060  1.00  0.00     0.158 HD
ENDBRANCH  42  58
ENDBRANCH  31  35
ENDBRANCH   1  26
TORSDOF 8
ENDMDL
MODEL 6
REMARK VINA RESULT:      -9.3      2.602      3.809
REMARK SMILES CNc1ccc2ccc(OCc3cncc(-n4cc([C@H]5CCCO5)c5c(N)ncnc54)c3)cc2n1
REMARK SMILES IDX 11 1 10 4 9 5 3 6 4 7 35 8 5 9 34 11 6 12 33 14 7 15 8 17
REMARK SMILES IDX 2 20 1 22 12 26 13 27 32 28 14 29 16 31 15 33 17 35 18 36
REMARK SMILES IDX 31 37 19 38 25 40 30 41 26 42 29 43 28 44 20 46 21 47 24 48
REMARK SMILES IDX 22 50 23 53 27 58
REMARK H PARENT 11 2 11 3 4 10 5 13 33 16 7 18 8 19 2 21 1 23 1 24 1 25 13 30
REMARK H PARENT 32 32 15 34 18 39 29 45 20 49 21 51 21 52 22 54 22 55 23 56
REMARK H PARENT 23 57 27 59 27 60
REMARK Flexibility Score: inf
ROOT
ATOM      1  C   UNL     1     -48.285  34.522  26.957  1.00  0.00     0.115 C 
ATOM      2  H   UNL     1     -48.522  35.442  26.408  1.00  0.00     0.076 H 
ATOM      3  H   UNL     1     -49.238  34.206  27.397  1.00  0.00     0.076 H 
ENDROOT
BRANCH   1   4
ATOM      4  O   UNL     1     -47.312  34.874  27.946  1.00  0.00    -0.489 OA
BRANCH   4   5
ATOM      5  C   UNL     1     -46.716  36.101  27.822  1.00  0.00     0.122 A 
ATOM      6  C   UNL     1     -43.711  39.545  29.145  1.00  0.00     0.126 A 
ATOM      7  C   UNL     1     -44.119  40.371  28.107  1.00  0.00    -0.019 A 
ATOM      8  N   UNL     1     -44.238  38.319  29.338  1.00  0.00    -0.231 NA
ATOM      9  C   UNL     1     -45.094  39.916  27.226  1.00  0.00    -0.049 A 
ATOM     10  H   UNL     1     -43.706  41.366  27.992  1.00  0.00     0.066 H 
ATOM     11  C   UNL     1     -45.187  37.874  28.491  1.00  0.00     0.076 A 
ATOM     12  C   UNL     1     -45.649  38.647  27.407  1.00  0.00     0.001 A 
ATOM     13  H   UNL     1     -45.421  40.559  26.414  1.00  0.00     0.063 H 
ATOM     14  C   UNL     1     -45.741  36.613  28.683  1.00  0.00     0.007 A 
ATOM     15  C   UNL     1     -46.647  38.151  26.554  1.00  0.00    -0.049 A 
ATOM     16  H   UNL     1     -45.395  36.046  29.541  1.00  0.00     0.069 H 
ATOM     17  C   UNL     1     -47.182  36.884  26.770  1.00  0.00    -0.019 A 
ATOM     18  H   UNL     1     -47.013  38.747  25.722  1.00  0.00     0.063 H 
ATOM     19  H   UNL     1     -47.954  36.500  26.108  1.00  0.00     0.066 H 
BRANCH   6  20
ATOM     20  N   UNL     1     -42.760  39.943  30.082  1.00  0.00    -0.373 N 
ATOM     21  H   UNL     1     -42.253  39.090  30.317  1.00  0.00     0.161 HD
BRANCH  20  22
ATOM     22  C   UNL     1     -41.878  41.017  29.659  1.00  0.00     0.005 C 
ATOM     23  H   UNL     1     -41.808  41.802  30.418  1.00  0.00     0.045 H 
ATOM     24  H   UNL     1     -40.871  40.614  29.514  1.00  0.00     0.045 H 
ATOM     25  H   UNL     1     -42.202  41.457  28.710  1.00  0.00     0.045 H 
ENDBRANCH  20  22
ENDBRANCH   6  20
ENDBRANCH   4   5
ENDBRANCH   1   4
BRANCH   1  26
ATOM     26  C   UNL     1     -47.745  33.510  25.985  1.00  0.00     0.010 A 
ATOM     27  C   UNL     1     -46.407  33.502  25.620  1.00  0.00     0.034 A 
ATOM     28  C   UNL     1     -48.565  32.508  25.451  1.00  0.00    -0.028 A 
ATOM     29  N   UNL     1     -45.865  32.604  24.769  1.00  0.00    -0.262 NA
ATOM     30  H   UNL     1     -45.709  34.237  26.014  1.00  0.00     0.084 H 
ATOM     31  C   UNL     1     -48.041  31.536  24.595  1.00  0.00     0.066 A 
ATOM     32  H   UNL     1     -49.614  32.520  25.727  1.00  0.00     0.065 H 
ATOM     33  C   UNL     1     -46.690  31.642  24.282  1.00  0.00     0.051 A 
ATOM     34  H   UNL     1     -46.173  30.938  23.640  1.00  0.00     0.086 H 
BRANCH  31  35
ATOM     35  N   UNL     1     -48.840  30.467  24.081  1.00  0.00    -0.299 N 
ATOM     36  C   UNL     1     -48.910  29.188  24.617  1.00  0.00     0.018 A 
ATOM     37  C   UNL     1     -49.695  30.498  22.981  1.00  0.00     0.150 A 
ATOM     38  C   UNL     1     -49.796  28.409  23.890  1.00  0.00     0.012 A 
ATOM     39  H   UNL     1     -48.306  28.912  25.468  1.00  0.00     0.083 H 
ATOM     40  C   UNL     1     -50.305  29.255  22.853  1.00  0.00     0.067 A 
ATOM     41  N   UNL     1     -49.933  31.555  22.183  1.00  0.00    -0.218 NA
ATOM     42  C   UNL     1     -51.233  29.109  21.806  1.00  0.00     0.136 A 
ATOM     43  C   UNL     1     -50.832  31.302  21.225  1.00  0.00     0.120 A 
ATOM     44  N   UNL     1     -51.488  30.154  20.997  1.00  0.00    -0.219 NA
ATOM     45  H   UNL     1     -51.054  32.126  20.555  1.00  0.00     0.106 H 
BRANCH  38  46
ATOM     46  C   UNL     1     -50.168  26.962  24.093  1.00  0.00     0.085 C 
ATOM     47  C   UNL     1     -49.340  26.193  25.116  1.00  0.00    -0.020 C 
ATOM     48  O   UNL     1     -51.536  26.866  24.558  1.00  0.00    -0.373 OA
ATOM     49  H   UNL     1     -50.108  26.460  23.119  1.00  0.00     0.066 H 
ATOM     50  C   UNL     1     -50.101  26.432  26.398  1.00  0.00    -0.027 C 
ATOM     51  H   UNL     1     -49.380  25.122  24.880  1.00  0.00     0.030 H 
ATOM     52  H   UNL     1     -48.287  26.474  25.172  1.00  0.00     0.030 H 
ATOM     53  C   UNL     1     -51.534  26.402  25.915  1.00  0.00     0.048 C 
ATOM     54  H   UNL     1     -49.859  27.421  26.803  1.00  0.00     0.029 H 
ATOM     55  H   UNL     1     -49.899  25.688  27.172  1.00  0.00     0.029 H 
ATOM     56  H   UNL     1     -52.193  27.033  26.520  1.00  0.00     0.057 H 
ATOM     57  H   UNL     1     -51.931  25.382  25.918  1.00  0.00     0.057 H 
ENDBRANCH  38  46
BRANCH  42  58
ATOM     58  N   UNL     1     -51.941  27.936  21.567  1.00  0.00    -0.383 N 
ATOM     59  H   UNL     1     -51.459  27.374  20.876  1.00  0.00     0.158 HD
ATOM     60  H   UNL     1     -52.927  28.111  21.375  1.00  0.00     0.158 HD
ENDBRANCH  42  58
ENDBRANCH  31  35
ENDBRANCH   1  26
TORSDOF 8
ENDMDL
MODEL 7
REMARK VINA RESULT:      -9.2      3.428     10.914
REMARK SMILES CNc1ccc2ccc(OCc3cncc(-n4cc([C@H]5CCCO5)c5c(N)ncnc54)c3)cc2n1
REMARK SMILES IDX 11 1 10 4 9 5 3 6 4 7 35 8 5 9 34 11 6 12 33 14 7 15 8 17
REMARK SMILES IDX 2 20 1 22 12 26 13 27 32 28 14 29 16 31 15 33 17 35 18 36
REMARK SMILES IDX 31 37 19 38 25 40 30 41 26 42 29 43 28 44 20 46 21 47 24 48
REMARK SMILES IDX 22 50 23 53 27 58
REMARK H PARENT 11 2 11 3 4 10 5 13 33 16 7 18 8 19 2 21 1 23 1 24 1 25 13 30
REMARK H PARENT 32 32 15 34 18 39 29 45 20 49 21 51 21 52 22 54 22 55 23 56
REMARK H PARENT 23 57 27 59 27 60
REMARK Flexibility Score: inf
ROOT
ATOM      1  C   UNL     1     -46.913  32.526  24.710  1.00  0.00     0.115 C 
ATOM      2  H   UNL     1     -46.447  33.155  23.940  1.00  0.00     0.076 H 
ATOM      3  H   UNL     1     -46.380  31.571  24.649  1.00  0.00     0.076 H 
ENDROOT
BRANCH   1   4
ATOM      4  O   UNL     1     -48.296  32.409  24.361  1.00  0.00    -0.489 OA
BRANCH   4   5
ATOM      5  C   UNL     1     -48.844  31.155  24.405  1.00  0.00     0.122 A 
ATOM      6  C   UNL     1     -49.194  26.700  26.040  1.00  0.00     0.126 A 
ATOM      7  C   UNL     1     -50.229  26.404  25.165  1.00  0.00    -0.019 A 
ATOM      8  N   UNL     1     -48.600  27.910  26.070  1.00  0.00    -0.231 NA
ATOM      9  C   UNL     1     -50.681  27.393  24.298  1.00  0.00    -0.049 A 
ATOM     10  H   UNL     1     -50.667  25.415  25.134  1.00  0.00     0.066 H 
ATOM     11  C   UNL     1     -49.031  28.871  25.229  1.00  0.00     0.076 A 
ATOM     12  C   UNL     1     -50.082  28.655  24.316  1.00  0.00     0.001 A 
ATOM     13  H   UNL     1     -51.488  27.168  23.607  1.00  0.00     0.063 H 
ATOM     14  C   UNL     1     -48.422  30.121  25.247  1.00  0.00     0.007 A 
ATOM     15  C   UNL     1     -50.493  29.678  23.449  1.00  0.00    -0.049 A 
ATOM     16  H   UNL     1     -47.594  30.259  25.935  1.00  0.00     0.069 H 
ATOM     17  C   UNL     1     -49.867  30.922  23.491  1.00  0.00    -0.019 A 
ATOM     18  H   UNL     1     -51.298  29.514  22.737  1.00  0.00     0.063 H 
ATOM     19  H   UNL     1     -50.187  31.715  22.821  1.00  0.00     0.066 H 
BRANCH   6  20
ATOM     20  N   UNL     1     -48.669  25.753  26.918  1.00  0.00    -0.373 N 
ATOM     21  H   UNL     1     -49.390  25.037  26.990  1.00  0.00     0.161 HD
BRANCH  20  22
ATOM     22  C   UNL     1     -47.375  25.208  26.546  1.00  0.00     0.005 C 
ATOM     23  H   UNL     1     -47.394  24.114  26.516  1.00  0.00     0.045 H 
ATOM     24  H   UNL     1     -47.117  25.556  25.541  1.00  0.00     0.045 H 
ATOM     25  H   UNL     1     -46.585  25.539  27.227  1.00  0.00     0.045 H 
ENDBRANCH  20  22
ENDBRANCH   6  20
ENDBRANCH   4   5
ENDBRANCH   1   4
BRANCH   1  26
ATOM     26  C   UNL     1     -46.732  33.193  26.045  1.00  0.00     0.010 A 
ATOM     27  C   UNL     1     -46.238  32.497  27.138  1.00  0.00     0.034 A 
ATOM     28  C   UNL     1     -47.010  34.555  26.219  1.00  0.00    -0.028 A 
ATOM     29  N   UNL     1     -46.035  33.051  28.353  1.00  0.00    -0.262 NA
ATOM     30  H   UNL     1     -45.979  31.443  27.068  1.00  0.00     0.084 H 
ATOM     31  C   UNL     1     -46.784  35.179  27.448  1.00  0.00     0.066 A 
ATOM     32  H   UNL     1     -47.408  35.097  25.368  1.00  0.00     0.065 H 
ATOM     33  C   UNL     1     -46.307  34.376  28.479  1.00  0.00     0.051 A 
ATOM     34  H   UNL     1     -46.081  34.754  29.470  1.00  0.00     0.086 H 
BRANCH  31  35
ATOM     35  N   UNL     1     -47.002  36.580  27.640  1.00  0.00    -0.299 N 
ATOM     36  C   UNL     1     -46.016  37.557  27.618  1.00  0.00     0.018 A 
ATOM     37  C   UNL     1     -48.215  37.227  27.865  1.00  0.00     0.150 A 
ATOM     38  C   UNL     1     -46.575  38.809  27.814  1.00  0.00     0.012 A 
ATOM     39  H   UNL     1     -44.978  37.291  27.487  1.00  0.00     0.083 H 
ATOM     40  C   UNL     1     -47.983  38.595  27.959  1.00  0.00     0.067 A 
ATOM     41  N   UNL     1     -49.428  36.648  27.947  1.00  0.00    -0.218 NA
ATOM     42  C   UNL     1     -49.107  39.417  28.156  1.00  0.00     0.136 A 
ATOM     43  C   UNL     1     -50.420  37.524  28.133  1.00  0.00     0.120 A 
ATOM     44  N   UNL     1     -50.328  38.859  28.238  1.00  0.00    -0.219 NA
ATOM     45  H   UNL     1     -51.417  37.102  28.207  1.00  0.00     0.106 H 
BRANCH  38  46
ATOM     46  C   UNL     1     -45.887  40.149  27.889  1.00  0.00     0.085 C 
ATOM     47  C   UNL     1     -44.405  40.165  27.533  1.00  0.00    -0.020 C 
ATOM     48  O   UNL     1     -46.511  41.075  26.968  1.00  0.00    -0.373 OA
ATOM     49  H   UNL     1     -46.025  40.541  28.904  1.00  0.00     0.066 H 
ATOM     50  C   UNL     1     -44.430  40.408  26.043  1.00  0.00    -0.027 C 
ATOM     51  H   UNL     1     -43.926  41.024  28.019  1.00  0.00     0.030 H 
ATOM     52  H   UNL     1     -43.845  39.273  27.822  1.00  0.00     0.030 H 
ATOM     53  C   UNL     1     -45.590  41.368  25.907  1.00  0.00     0.048 C 
ATOM     54  H   UNL     1     -44.647  39.475  25.510  1.00  0.00     0.029 H 
ATOM     55  H   UNL     1     -43.495  40.815  25.650  1.00  0.00     0.029 H 
ATOM     56  H   UNL     1     -46.100  41.276  24.943  1.00  0.00     0.057 H 
ATOM     57  H   UNL     1     -45.262  42.405  26.029  1.00  0.00     0.057 H 
ENDBRANCH  38  46
BRANCH  42  58
ATOM     58  N   UNL     1     -49.037  40.803  28.244  1.00  0.00    -0.383 N 
ATOM     59  H   UNL     1     -48.070  41.104  28.240  1.00  0.00     0.158 HD
ATOM     60  H   UNL     1     -49.604  41.172  29.007  1.00  0.00     0.158 HD
ENDBRANCH  42  58
ENDBRANCH  31  35
ENDBRANCH   1  26
TORSDOF 8
ENDMDL
