MODEL 1
REMARK VINA RESULT:     -10.5      0.000      0.000
REMARK SMILES CNc1ccc2ccc(OCc3cncc(-n4cc([C@H]5CCCO5)c5c(N)ncnc54)c3)cc2n1
REMARK SMILES IDX 11 1 10 4 9 5 3 6 4 7 35 8 5 9 34 11 6 12 33 14 7 15 8 17
REMARK SMILES IDX 2 20 1 22 12 26 13 27 32 28 14 29 16 31 15 33 17 35 18 36
REMARK SMILES IDX 31 37 19 38 25 40 30 41 26 42 29 43 28 44 20 46 21 47 24 48
REMARK SMILES IDX 22 50 23 53 27 58
REMARK H PARENT 11 2 11 3 4 10 5 13 33 16 7 18 8 19 2 21 1 23 1 24 1 25 13 30
REMARK H PARENT 32 32 15 34 18 39 29 45 20 49 21 51 21 52 22 54 22 55 23 56
REMARK H PARENT 23 57 27 59 27 60
REMARK Flexibility Score: inf
ROOT
ATOM      1  C   UNL     1     -46.572  36.729  26.896  1.00  0.00     0.115 C 
ATOM      2  H   UNL     1     -45.668  37.063  26.375  1.00  0.00     0.076 H 
ATOM      3  H   UNL     1     -47.405  37.104  26.289  1.00  0.00     0.076 H 
ENDROOT
BRANCH   1   4
ATOM      4  O   UNL     1     -46.708  37.324  28.193  1.00  0.00    -0.489 OA
BRANCH   4   5
ATOM      5  C   UNL     1     -45.659  38.112  28.585  1.00  0.00     0.122 A 
ATOM      6  C   UNL     1     -42.711  41.806  28.033  1.00  0.00     0.126 A 
ATOM      7  C   UNL     1     -42.024  41.487  29.199  1.00  0.00    -0.019 A 
ATOM      8  N   UNL     1     -43.764  41.076  27.610  1.00  0.00    -0.231 NA
ATOM      9  C   UNL     1     -42.419  40.380  29.943  1.00  0.00    -0.049 A 
ATOM     10  H   UNL     1     -41.195  42.100  29.535  1.00  0.00     0.066 H 
ATOM     11  C   UNL     1     -44.154  40.004  28.327  1.00  0.00     0.076 A 
ATOM     12  C   UNL     1     -43.503  39.613  29.514  1.00  0.00     0.001 A 
ATOM     13  H   UNL     1     -41.883  40.131  30.855  1.00  0.00     0.063 H 
ATOM     14  C   UNL     1     -45.236  39.249  27.892  1.00  0.00     0.007 A 
ATOM     15  C   UNL     1     -43.947  38.493  30.235  1.00  0.00    -0.049 A 
ATOM     16  H   UNL     1     -45.750  39.576  26.994  1.00  0.00     0.069 H 
ATOM     17  C   UNL     1     -45.030  37.750  29.772  1.00  0.00    -0.019 A 
ATOM     18  H   UNL     1     -43.453  38.193  31.155  1.00  0.00     0.063 H 
ATOM     19  H   UNL     1     -45.370  36.879  30.326  1.00  0.00     0.066 H 
BRANCH   6  20
ATOM     20  N   UNL     1     -42.298  42.944  27.318  1.00  0.00    -0.373 N 
ATOM     21  H   UNL     1     -41.352  42.802  26.976  1.00  0.00     0.161 HD
BRANCH  20  22
ATOM     22  C   UNL     1     -43.208  43.359  26.265  1.00  0.00     0.005 C 
ATOM     23  H   UNL     1     -44.242  43.072  26.488  1.00  0.00     0.045 H 
ATOM     24  H   UNL     1     -43.155  44.439  26.088  1.00  0.00     0.045 H 
ATOM     25  H   UNL     1     -42.922  42.862  25.332  1.00  0.00     0.045 H 
ENDBRANCH  20  22
ENDBRANCH   6  20
ENDBRANCH   4   5
ENDBRANCH   1   4
BRANCH   1  26
ATOM     26  C   UNL     1     -46.656  35.227  26.957  1.00  0.00     0.010 A 
ATOM     27  C   UNL     1     -46.038  34.512  27.971  1.00  0.00     0.034 A 
ATOM     28  C   UNL     1     -47.317  34.499  25.959  1.00  0.00    -0.028 A 
ATOM     29  N   UNL     1     -46.061  33.164  28.059  1.00  0.00    -0.262 NA
ATOM     30  H   UNL     1     -45.489  35.011  28.764  1.00  0.00     0.084 H 
ATOM     31  C   UNL     1     -47.337  33.103  25.990  1.00  0.00     0.066 A 
ATOM     32  H   UNL     1     -47.808  35.059  25.170  1.00  0.00     0.065 H 
ATOM     33  C   UNL     1     -46.702  32.493  27.069  1.00  0.00     0.051 A 
ATOM     34  H   UNL     1     -46.643  31.417  27.190  1.00  0.00     0.086 H 
BRANCH  31  35
ATOM     35  N   UNL     1     -47.959  32.328  24.960  1.00  0.00    -0.299 N 
ATOM     36  C   UNL     1     -49.327  32.158  24.800  1.00  0.00     0.018 A 
ATOM     37  C   UNL     1     -47.333  31.598  23.951  1.00  0.00     0.150 A 
ATOM     38  C   UNL     1     -49.587  31.347  23.709  1.00  0.00     0.012 A 
ATOM     39  H   UNL     1     -50.026  32.647  25.462  1.00  0.00     0.083 H 
ATOM     40  C   UNL     1     -48.310  30.989  23.169  1.00  0.00     0.067 A 
ATOM     41  N   UNL     1     -46.006  31.463  23.762  1.00  0.00    -0.218 NA
ATOM     42  C   UNL     1     -47.863  30.204  22.092  1.00  0.00     0.136 A 
ATOM     43  C   UNL     1     -45.699  30.683  22.721  1.00  0.00     0.120 A 
ATOM     44  N   UNL     1     -46.542  30.063  21.880  1.00  0.00    -0.219 NA
ATOM     45  H   UNL     1     -44.640  30.540  22.530  1.00  0.00     0.106 H 
BRANCH  38  46
ATOM     46  C   UNL     1     -50.918  30.885  23.171  1.00  0.00     0.085 C 
ATOM     47  C   UNL     1     -52.153  31.512  23.805  1.00  0.00    -0.020 C 
ATOM     48  O   UNL     1     -51.014  31.197  21.760  1.00  0.00    -0.373 OA
ATOM     49  H   UNL     1     -50.963  29.795  23.277  1.00  0.00     0.066 H 
ATOM     50  C   UNL     1     -52.379  32.731  22.947  1.00  0.00    -0.027 C 
ATOM     51  H   UNL     1     -53.007  30.833  23.679  1.00  0.00     0.030 H 
ATOM     52  H   UNL     1     -52.070  31.734  24.872  1.00  0.00     0.030 H 
ATOM     53  C   UNL     1     -52.006  32.218  21.576  1.00  0.00     0.048 C 
ATOM     54  H   UNL     1     -51.699  33.537  23.247  1.00  0.00     0.029 H 
ATOM     55  H   UNL     1     -53.402  33.116  22.992  1.00  0.00     0.029 H 
ATOM     56  H   UNL     1     -51.609  33.004  20.927  1.00  0.00     0.057 H 
ATOM     57  H   UNL     1     -52.866  31.758  21.077  1.00  0.00     0.057 H 
ENDBRANCH  38  46
BRANCH  42  58
ATOM     58  N   UNL     1     -48.718  29.564  21.201  1.00  0.00    -0.383 N 
ATOM     59  H   UNL     1     -48.884  30.152  20.394  1.00  0.00     0.158 HD
ATOM     60  H   UNL     1     -49.557  29.208  21.660  1.00  0.00     0.158 HD
ENDBRANCH  42  58
ENDBRANCH  31  35
ENDBRANCH   1  26
TORSDOF 8
ENDMDL
MODEL 2
REMARK VINA RESULT:     -10.1      2.791     11.272
REMARK SMILES CNc1ccc2ccc(OCc3cncc(-n4cc([C@H]5CCCO5)c5c(N)ncnc54)c3)cc2n1
REMARK SMILES IDX 11 1 10 4 9 5 3 6 4 7 35 8 5 9 34 11 6 12 33 14 7 15 8 17
REMARK SMILES IDX 2 20 1 22 12 26 13 27 32 28 14 29 16 31 15 33 17 35 18 36
REMARK SMILES IDX 31 37 19 38 25 40 30 41 26 42 29 43 28 44 20 46 21 47 24 48
REMARK SMILES IDX 22 50 23 53 27 58
REMARK H PARENT 11 2 11 3 4 10 5 13 33 16 7 18 8 19 2 21 1 23 1 24 1 25 13 30
REMARK H PARENT 32 32 15 34 18 39 29 45 20 49 21 51 21 52 22 54 22 55 23 56
REMARK H PARENT 23 57 27 59 27 60
REMARK Flexibility Score: inf
ROOT
ATOM      1  C   UNL     1     -46.798  34.404  27.110  1.00  0.00     0.115 C 
ATOM      2  H   UNL     1     -45.991  34.314  26.373  1.00  0.00     0.076 H 
ATOM      3  H   UNL     1     -46.402  33.938  28.020  1.00  0.00     0.076 H 
ENDROOT
BRANCH   1   4
ATOM      4  O   UNL     1     -47.964  33.658  26.738  1.00  0.00    -0.489 OA
BRANCH   4   5
ATOM      5  C   UNL     1     -47.739  32.614  25.881  1.00  0.00     0.122 A 
ATOM      6  C   UNL     1     -48.604  28.234  24.239  1.00  0.00     0.126 A 
ATOM      7  C   UNL     1     -47.619  28.357  23.266  1.00  0.00    -0.019 A 
ATOM      8  N   UNL     1     -48.881  29.237  25.097  1.00  0.00    -0.231 NA
ATOM      9  C   UNL     1     -46.887  29.537  23.181  1.00  0.00    -0.049 A 
ATOM     10  H   UNL     1     -47.428  27.548  22.570  1.00  0.00     0.066 H 
ATOM     11  C   UNL     1     -48.179  30.384  25.019  1.00  0.00     0.076 A 
ATOM     12  C   UNL     1     -47.160  30.581  24.066  1.00  0.00     0.001 A 
ATOM     13  H   UNL     1     -46.118  29.634  22.420  1.00  0.00     0.063 H 
ATOM     14  C   UNL     1     -48.460  31.418  25.903  1.00  0.00     0.007 A 
ATOM     15  C   UNL     1     -46.457  31.796  24.014  1.00  0.00    -0.049 A 
ATOM     16  H   UNL     1     -49.267  31.268  26.613  1.00  0.00     0.069 H 
ATOM     17  C   UNL     1     -46.755  32.813  24.918  1.00  0.00    -0.019 A 
ATOM     18  H   UNL     1     -45.676  31.955  23.276  1.00  0.00     0.063 H 
ATOM     19  H   UNL     1     -46.207  33.750  24.884  1.00  0.00     0.066 H 
BRANCH   6  20
ATOM     20  N   UNL     1     -49.339  27.035  24.281  1.00  0.00    -0.373 N 
ATOM     21  H   UNL     1     -49.228  26.542  23.399  1.00  0.00     0.161 HD
BRANCH  20  22
ATOM     22  C   UNL     1     -49.049  26.189  25.425  1.00  0.00     0.005 C 
ATOM     23  H   UNL     1     -49.726  26.396  26.261  1.00  0.00     0.045 H 
ATOM     24  H   UNL     1     -49.100  25.126  25.164  1.00  0.00     0.045 H 
ATOM     25  H   UNL     1     -48.029  26.392  25.768  1.00  0.00     0.045 H 
ENDBRANCH  20  22
ENDBRANCH   6  20
ENDBRANCH   4   5
ENDBRANCH   1   4
BRANCH   1  26
ATOM     26  C   UNL     1     -47.124  35.844  27.405  1.00  0.00     0.010 A 
ATOM     27  C   UNL     1     -48.428  36.255  27.633  1.00  0.00     0.034 A 
ATOM     28  C   UNL     1     -46.124  36.826  27.406  1.00  0.00    -0.028 A 
ATOM     29  N   UNL     1     -48.778  37.536  27.877  1.00  0.00    -0.262 NA
ATOM     30  H   UNL     1     -49.254  35.550  27.624  1.00  0.00     0.084 H 
ATOM     31  C   UNL     1     -46.444  38.169  27.619  1.00  0.00     0.066 A 
ATOM     32  H   UNL     1     -45.102  36.503  27.235  1.00  0.00     0.065 H 
ATOM     33  C   UNL     1     -47.784  38.461  27.860  1.00  0.00     0.051 A 
ATOM     34  H   UNL     1     -48.150  39.468  28.026  1.00  0.00     0.086 H 
BRANCH  31  35
ATOM     35  N   UNL     1     -45.455  39.202  27.575  1.00  0.00    -0.299 N 
ATOM     36  C   UNL     1     -45.322  40.141  26.561  1.00  0.00     0.018 A 
ATOM     37  C   UNL     1     -44.449  39.456  28.505  1.00  0.00     0.150 A 
ATOM     38  C   UNL     1     -44.262  40.991  26.828  1.00  0.00     0.012 A 
ATOM     39  H   UNL     1     -46.007  40.155  25.726  1.00  0.00     0.083 H 
ATOM     40  C   UNL     1     -43.705  40.549  28.071  1.00  0.00     0.067 A 
ATOM     41  N   UNL     1     -44.198  38.754  29.627  1.00  0.00    -0.218 NA
ATOM     42  C   UNL     1     -42.637  40.955  28.890  1.00  0.00     0.136 A 
ATOM     43  C   UNL     1     -43.152  39.220  30.317  1.00  0.00     0.120 A 
ATOM     44  N   UNL     1     -42.375  40.273  30.021  1.00  0.00    -0.219 NA
ATOM     45  H   UNL     1     -42.907  38.685  31.228  1.00  0.00     0.106 H 
BRANCH  38  46
ATOM     46  C   UNL     1     -43.744  42.143  26.005  1.00  0.00     0.085 C 
ATOM     47  C   UNL     1     -44.515  42.458  24.730  1.00  0.00    -0.020 C 
ATOM     48  O   UNL     1     -43.783  43.363  26.785  1.00  0.00    -0.373 OA
ATOM     49  H   UNL     1     -42.695  41.936  25.759  1.00  0.00     0.066 H 
ATOM     50  C   UNL     1     -45.554  43.440  25.209  1.00  0.00    -0.027 C 
ATOM     51  H   UNL     1     -43.849  42.970  24.023  1.00  0.00     0.030 H 
ATOM     52  H   UNL     1     -44.934  41.592  24.210  1.00  0.00     0.030 H 
ATOM     53  C   UNL     1     -44.777  44.237  26.231  1.00  0.00     0.048 C 
ATOM     54  H   UNL     1     -46.382  42.910  25.692  1.00  0.00     0.029 H 
ATOM     55  H   UNL     1     -45.969  44.063  24.412  1.00  0.00     0.029 H 
ATOM     56  H   UNL     1     -45.413  44.625  27.033  1.00  0.00     0.057 H 
ATOM     57  H   UNL     1     -44.255  45.079  25.765  1.00  0.00     0.057 H 
ENDBRANCH  38  46
BRANCH  42  58
ATOM     58  N   UNL     1     -41.827  42.050  28.609  1.00  0.00    -0.383 N 
ATOM     59  H   UNL     1     -41.126  42.158  29.331  1.00  0.00     0.158 HD
ATOM     60  H   UNL     1     -42.370  42.888  28.400  1.00  0.00     0.158 HD
ENDBRANCH  42  58
ENDBRANCH  31  35
ENDBRANCH   1  26
TORSDOF 8
ENDMDL
MODEL 3
REMARK VINA RESULT:      -9.8      2.751      3.869
REMARK SMILES CNc1ccc2ccc(OCc3cncc(-n4cc([C@H]5CCCO5)c5c(N)ncnc54)c3)cc2n1
REMARK SMILES IDX 11 1 10 4 9 5 3 6 4 7 35 8 5 9 34 11 6 12 33 14 7 15 8 17
REMARK SMILES IDX 2 20 1 22 12 26 13 27 32 28 14 29 16 31 15 33 17 35 18 36
REMARK SMILES IDX 31 37 19 38 25 40 30 41 26 42 29 43 28 44 20 46 21 47 24 48
REMARK SMILES IDX 22 50 23 53 27 58
REMARK H PARENT 11 2 11 3 4 10 5 13 33 16 7 18 8 19 2 21 1 23 1 24 1 25 13 30
REMARK H PARENT 32 32 15 34 18 39 29 45 20 49 21 51 21 52 22 54 22 55 23 56
REMARK H PARENT 23 57 27 59 27 60
REMARK Flexibility Score: inf
ROOT
ATOM      1  C   UNL     1     -48.652  35.067  27.035  1.00  0.00     0.115 C 
ATOM      2  H   UNL     1     -48.738  35.996  26.459  1.00  0.00     0.076 H 
ATOM      3  H   UNL     1     -49.685  34.794  27.286  1.00  0.00     0.076 H 
ENDROOT
BRANCH   1   4
ATOM      4  O   UNL     1     -47.964  35.257  28.279  1.00  0.00    -0.489 OA
BRANCH   4   5
ATOM      5  C   UNL     1     -47.091  36.312  28.307  1.00  0.00     0.122 A 
ATOM      6  C   UNL     1     -45.335  40.389  26.597  1.00  0.00     0.126 A 
ATOM      7  C   UNL     1     -44.376  40.447  27.601  1.00  0.00    -0.019 A 
ATOM      8  N   UNL     1     -46.231  39.383  26.532  1.00  0.00    -0.231 NA
ATOM      9  C   UNL     1     -44.326  39.439  28.558  1.00  0.00    -0.049 A 
ATOM     10  H   UNL     1     -43.679  41.277  27.650  1.00  0.00     0.066 H 
ATOM     11  C   UNL     1     -46.192  38.404  27.456  1.00  0.00     0.076 A 
ATOM     12  C   UNL     1     -45.244  38.389  28.499  1.00  0.00     0.001 A 
ATOM     13  H   UNL     1     -43.578  39.484  29.343  1.00  0.00     0.063 H 
ATOM     14  C   UNL     1     -47.112  37.365  27.390  1.00  0.00     0.007 A 
ATOM     15  C   UNL     1     -45.243  37.352  29.446  1.00  0.00    -0.049 A 
ATOM     16  H   UNL     1     -47.857  37.401  26.601  1.00  0.00     0.069 H 
ATOM     17  C   UNL     1     -46.172  36.319  29.352  1.00  0.00    -0.019 A 
ATOM     18  H   UNL     1     -44.519  37.341  30.257  1.00  0.00     0.063 H 
ATOM     19  H   UNL     1     -46.167  35.513  30.079  1.00  0.00     0.066 H 
BRANCH   6  20
ATOM     20  N   UNL     1     -45.370  41.438  25.661  1.00  0.00    -0.373 N 
ATOM     21  H   UNL     1     -46.190  42.014  25.831  1.00  0.00     0.161 HD
BRANCH  20  22
ATOM     22  C   UNL     1     -44.151  42.225  25.589  1.00  0.00     0.005 C 
ATOM     23  H   UNL     1     -43.259  41.599  25.706  1.00  0.00     0.045 H 
ATOM     24  H   UNL     1     -44.088  42.786  24.651  1.00  0.00     0.045 H 
ATOM     25  H   UNL     1     -44.150  42.955  26.406  1.00  0.00     0.045 H 
ENDBRANCH  20  22
ENDBRANCH   6  20
ENDBRANCH   4   5
ENDBRANCH   1   4
BRANCH   1  26
ATOM     26  C   UNL     1     -48.042  33.959  26.220  1.00  0.00     0.010 A 
ATOM     27  C   UNL     1     -46.742  34.045  25.747  1.00  0.00     0.034 A 
ATOM     28  C   UNL     1     -48.788  32.828  25.865  1.00  0.00    -0.028 A 
ATOM     29  N   UNL     1     -46.155  33.093  24.991  1.00  0.00    -0.262 NA
ATOM     30  H   UNL     1     -46.115  34.905  25.965  1.00  0.00     0.084 H 
ATOM     31  C   UNL     1     -48.234  31.834  25.055  1.00  0.00     0.066 A 
ATOM     32  H   UNL     1     -49.803  32.757  26.242  1.00  0.00     0.065 H 
ATOM     33  C   UNL     1     -46.912  32.016  24.659  1.00  0.00     0.051 A 
ATOM     34  H   UNL     1     -46.383  31.317  24.020  1.00  0.00     0.086 H 
BRANCH  31  35
ATOM     35  N   UNL     1     -48.985  30.691  24.633  1.00  0.00    -0.299 N 
ATOM     36  C   UNL     1     -48.641  29.369  24.881  1.00  0.00     0.018 A 
ATOM     37  C   UNL     1     -50.168  30.676  23.896  1.00  0.00     0.150 A 
ATOM     38  C   UNL     1     -49.580  28.515  24.329  1.00  0.00     0.012 A 
ATOM     39  H   UNL     1     -47.759  29.125  25.455  1.00  0.00     0.083 H 
ATOM     40  C   UNL     1     -50.554  29.354  23.699  1.00  0.00     0.067 A 
ATOM     41  N   UNL     1     -50.829  31.748  23.417  1.00  0.00    -0.218 NA
ATOM     42  C   UNL     1     -51.738  29.141  22.970  1.00  0.00     0.136 A 
ATOM     43  C   UNL     1     -51.927  31.424  22.727  1.00  0.00     0.120 A 
ATOM     44  N   UNL     1     -52.418  30.198  22.490  1.00  0.00    -0.219 NA
ATOM     45  H   UNL     1     -52.493  32.255  22.317  1.00  0.00     0.106 H 
BRANCH  38  46
ATOM     46  C   UNL     1     -49.607  27.007  24.339  1.00  0.00     0.085 C 
ATOM     47  C   UNL     1     -48.502  26.321  25.130  1.00  0.00    -0.020 C 
ATOM     48  O   UNL     1     -50.845  26.541  24.929  1.00  0.00    -0.373 OA
ATOM     49  H   UNL     1     -49.583  26.664  23.298  1.00  0.00     0.066 H 
ATOM     50  C   UNL     1     -49.106  26.209  26.508  1.00  0.00    -0.027 C 
ATOM     51  H   UNL     1     -48.350  25.309  24.732  1.00  0.00     0.030 H 
ATOM     52  H   UNL     1     -47.533  26.825  25.114  1.00  0.00     0.030 H 
ATOM     53  C   UNL     1     -50.554  25.916  26.188  1.00  0.00     0.048 C 
ATOM     54  H   UNL     1     -49.022  27.165  27.037  1.00  0.00     0.029 H 
ATOM     55  H   UNL     1     -48.644  25.436  27.128  1.00  0.00     0.029 H 
ATOM     56  H   UNL     1     -51.237  26.294  26.953  1.00  0.00     0.057 H 
ATOM     57  H   UNL     1     -50.724  24.840  26.070  1.00  0.00     0.057 H 
ENDBRANCH  38  46
BRANCH  42  58
ATOM     58  N   UNL     1     -52.270  27.880  22.722  1.00  0.00    -0.383 N 
ATOM     59  H   UNL     1     -52.193  27.302  23.550  1.00  0.00     0.158 HD
ATOM     60  H   UNL     1     -51.901  27.466  21.866  1.00  0.00     0.158 HD
ENDBRANCH  42  58
ENDBRANCH  31  35
ENDBRANCH   1  26
TORSDOF 8
ENDMDL
MODEL 4
REMARK VINA RESULT:      -9.6      2.405     10.925
REMARK SMILES CNc1ccc2ccc(OCc3cncc(-n4cc([C@H]5CCCO5)c5c(N)ncnc54)c3)cc2n1
REMARK SMILES IDX 11 1 10 4 9 5 3 6 4 7 35 8 5 9 34 11 6 12 33 14 7 15 8 17
REMARK SMILES IDX 2 20 1 22 12 26 13 27 32 28 14 29 16 31 15 33 17 35 18 36
REMARK SMILES IDX 31 37 19 38 25 40 30 41 26 42 29 43 28 44 20 46 21 47 24 48
REMARK SMILES IDX 22 50 23 53 27 58
REMARK H PARENT 11 2 11 3 4 10 5 13 33 16 7 18 8 19 2 21 1 23 1 24 1 25 13 30
REMARK H PARENT 32 32 15 34 18 39 29 45 20 49 21 51 21 52 22 54 22 55 23 56
REMARK H PARENT 23 57 27 59 27 60
REMARK Flexibility Score: inf
ROOT
ATOM      1  C   UNL     1     -46.265  34.325  27.524  1.00  0.00     0.115 C 
ATOM      2  H   UNL     1     -45.473  34.093  28.245  1.00  0.00     0.076 H 
ATOM      3  H   UNL     1     -47.106  33.682  27.811  1.00  0.00     0.076 H 
ENDROOT
BRANCH   1   4
ATOM      4  O   UNL     1     -45.909  33.962  26.184  1.00  0.00    -0.489 OA
BRANCH   4   5
ATOM      5  C   UNL     1     -46.681  32.981  25.621  1.00  0.00     0.122 A 
ATOM      6  C   UNL     1     -48.179  30.378  21.931  1.00  0.00     0.126 A 
ATOM      7  C   UNL     1     -49.060  29.665  22.736  1.00  0.00    -0.019 A 
ATOM      8  N   UNL     1     -47.382  31.343  22.436  1.00  0.00    -0.231 NA
ATOM      9  C   UNL     1     -49.134  29.959  24.094  1.00  0.00    -0.049 A 
ATOM     10  H   UNL     1     -49.675  28.877  22.316  1.00  0.00     0.066 H 
ATOM     11  C   UNL     1     -47.446  31.631  23.750  1.00  0.00     0.076 A 
ATOM     12  C   UNL     1     -48.319  30.958  24.628  1.00  0.00     0.001 A 
ATOM     13  H   UNL     1     -49.821  29.401  24.724  1.00  0.00     0.063 H 
ATOM     14  C   UNL     1     -46.628  32.626  24.271  1.00  0.00     0.007 A 
ATOM     15  C   UNL     1     -48.349  31.285  25.993  1.00  0.00    -0.049 A 
ATOM     16  H   UNL     1     -45.938  33.117  23.593  1.00  0.00     0.069 H 
ATOM     17  C   UNL     1     -47.523  32.291  26.488  1.00  0.00    -0.019 A 
ATOM     18  H   UNL     1     -49.015  30.763  26.675  1.00  0.00     0.063 H 
ATOM     19  H   UNL     1     -47.550  32.550  27.542  1.00  0.00     0.066 H 
BRANCH   6  20
ATOM     20  N   UNL     1     -48.114  30.039  20.568  1.00  0.00    -0.373 N 
ATOM     21  H   UNL     1     -48.862  29.387  20.348  1.00  0.00     0.161 HD
BRANCH  20  22
ATOM     22  C   UNL     1     -48.091  31.175  19.663  1.00  0.00     0.005 C 
ATOM     23  H   UNL     1     -48.098  32.125  20.208  1.00  0.00     0.045 H 
ATOM     24  H   UNL     1     -47.225  31.140  18.994  1.00  0.00     0.045 H 
ATOM     25  H   UNL     1     -48.988  31.148  19.036  1.00  0.00     0.045 H 
ENDBRANCH  20  22
ENDBRANCH   6  20
ENDBRANCH   4   5
ENDBRANCH   1   4
BRANCH   1  26
ATOM     26  C   UNL     1     -46.702  35.762  27.619  1.00  0.00     0.010 A 
ATOM     27  C   UNL     1     -48.044  36.107  27.653  1.00  0.00     0.034 A 
ATOM     28  C   UNL     1     -45.764  36.804  27.620  1.00  0.00    -0.028 A 
ATOM     29  N   UNL     1     -48.490  37.380  27.713  1.00  0.00    -0.262 NA
ATOM     30  H   UNL     1     -48.824  35.351  27.632  1.00  0.00     0.084 H 
ATOM     31  C   UNL     1     -46.180  38.137  27.644  1.00  0.00     0.066 A 
ATOM     32  H   UNL     1     -44.713  36.534  27.600  1.00  0.00     0.065 H 
ATOM     33  C   UNL     1     -47.552  38.362  27.701  1.00  0.00     0.051 A 
ATOM     34  H   UNL     1     -47.990  39.354  27.712  1.00  0.00     0.086 H 
BRANCH  31  35
ATOM     35  N   UNL     1     -45.250  39.224  27.594  1.00  0.00    -0.299 N 
ATOM     36  C   UNL     1     -45.169  40.163  26.575  1.00  0.00     0.018 A 
ATOM     37  C   UNL     1     -44.260  39.539  28.523  1.00  0.00     0.150 A 
ATOM     38  C   UNL     1     -44.159  41.073  26.837  1.00  0.00     0.012 A 
ATOM     39  H   UNL     1     -45.854  40.134  25.740  1.00  0.00     0.083 H 
ATOM     40  C   UNL     1     -43.579  40.670  28.082  1.00  0.00     0.067 A 
ATOM     41  N   UNL     1     -43.971  38.860  29.649  1.00  0.00    -0.218 NA
ATOM     42  C   UNL     1     -42.535  41.140  28.899  1.00  0.00     0.136 A 
ATOM     43  C   UNL     1     -42.953  39.388  30.336  1.00  0.00     0.120 A 
ATOM     44  N   UNL     1     -42.236  40.481  30.034  1.00  0.00    -0.219 NA
ATOM     45  H   UNL     1     -42.679  38.873  31.251  1.00  0.00     0.106 H 
BRANCH  38  46
ATOM     46  C   UNL     1     -43.706  42.247  26.006  1.00  0.00     0.085 C 
ATOM     47  C   UNL     1     -44.478  42.496  24.717  1.00  0.00    -0.020 C 
ATOM     48  O   UNL     1     -43.837  43.470  26.771  1.00  0.00    -0.373 OA
ATOM     49  H   UNL     1     -42.643  42.107  25.778  1.00  0.00     0.066 H 
ATOM     50  C   UNL     1     -45.586  43.413  25.170  1.00  0.00    -0.027 C 
ATOM     51  H   UNL     1     -43.837  43.043  24.014  1.00  0.00     0.030 H 
ATOM     52  H   UNL     1     -44.831  41.598  24.203  1.00  0.00     0.030 H 
ATOM     53  C   UNL     1     -44.879  44.271  26.193  1.00  0.00     0.048 C 
ATOM     54  H   UNL     1     -46.385  42.834  25.648  1.00  0.00     0.029 H 
ATOM     55  H   UNL     1     -46.030  43.998  24.360  1.00  0.00     0.029 H 
ATOM     56  H   UNL     1     -45.550  44.624  26.981  1.00  0.00     0.057 H 
ATOM     57  H   UNL     1     -44.406  45.140  25.723  1.00  0.00     0.057 H 
ENDBRANCH  38  46
BRANCH  42  58
ATOM     58  N   UNL     1     -41.788  42.277  28.611  1.00  0.00    -0.383 N 
ATOM     59  H   UNL     1     -41.085  42.064  27.915  1.00  0.00     0.158 HD
ATOM     60  H   UNL     1     -41.441  42.735  29.455  1.00  0.00     0.158 HD
ENDBRANCH  42  58
ENDBRANCH  31  35
ENDBRANCH   1  26
TORSDOF 8
ENDMDL
MODEL 5
REMARK VINA RESULT:      -9.5      3.435     11.014
REMARK SMILES CNc1ccc2ccc(OCc3cncc(-n4cc([C@H]5CCCO5)c5c(N)ncnc54)c3)cc2n1
REMARK SMILES IDX 11 1 10 4 9 5 3 6 4 7 35 8 5 9 34 11 6 12 33 14 7 15 8 17
REMARK SMILES IDX 2 20 1 22 12 26 13 27 32 28 14 29 16 31 15 33 17 35 18 36
REMARK SMILES IDX 31 37 19 38 25 40 30 41 26 42 29 43 28 44 20 46 21 47 24 48
REMARK SMILES IDX 22 50 23 53 27 58
REMARK H PARENT 11 2 11 3 4 10 5 13 33 16 7 18 8 19 2 21 1 23 1 24 1 25 13 30
REMARK H PARENT 32 32 15 34 18 39 29 45 20 49 21 51 21 52 22 54 22 55 23 56
REMARK H PARENT 23 57 27 59 27 60
REMARK Flexibility Score: inf
ROOT
ATOM      1  C   UNL     1     -46.931  32.604  24.630  1.00  0.00     0.115 C 
ATOM      2  H   UNL     1     -46.428  33.112  23.799  1.00  0.00     0.076 H 
ATOM      3  H   UNL     1     -46.489  31.601  24.658  1.00  0.00     0.076 H 
ENDROOT
BRANCH   1   4
ATOM      4  O   UNL     1     -48.334  32.429  24.394  1.00  0.00    -0.489 OA
BRANCH   4   5
ATOM      5  C   UNL     1     -48.750  31.127  24.297  1.00  0.00     0.122 A 
ATOM      6  C   UNL     1     -49.097  26.669  25.919  1.00  0.00     0.126 A 
ATOM      7  C   UNL     1     -49.812  26.270  24.796  1.00  0.00    -0.019 A 
ATOM      8  N   UNL     1     -48.679  27.942  26.077  1.00  0.00    -0.231 NA
ATOM      9  C   UNL     1     -50.094  27.199  23.800  1.00  0.00    -0.049 A 
ATOM     10  H   UNL     1     -50.160  25.247  24.699  1.00  0.00     0.066 H 
ATOM     11  C   UNL     1     -48.951  28.848  25.118  1.00  0.00     0.076 A 
ATOM     12  C   UNL     1     -49.663  28.518  23.948  1.00  0.00     0.001 A 
ATOM     13  H   UNL     1     -50.654  26.888  22.923  1.00  0.00     0.063 H 
ATOM     14  C   UNL     1     -48.519  30.159  25.276  1.00  0.00     0.007 A 
ATOM     15  C   UNL     1     -49.931  29.496  22.977  1.00  0.00    -0.049 A 
ATOM     16  H   UNL     1     -47.998  30.411  26.195  1.00  0.00     0.069 H 
ATOM     17  C   UNL     1     -49.481  30.801  23.158  1.00  0.00    -0.019 A 
ATOM     18  H   UNL     1     -50.487  29.247  22.077  1.00  0.00     0.063 H 
ATOM     19  H   UNL     1     -49.681  31.557  22.404  1.00  0.00     0.066 H 
BRANCH   6  20
ATOM     20  N   UNL     1     -48.849  25.708  26.916  1.00  0.00    -0.373 N 
ATOM     21  H   UNL     1     -49.654  25.092  26.997  1.00  0.00     0.161 HD
BRANCH  20  22
ATOM     22  C   UNL     1     -47.608  24.971  26.751  1.00  0.00     0.005 C 
ATOM     23  H   UNL     1     -47.394  24.342  27.621  1.00  0.00     0.045 H 
ATOM     24  H   UNL     1     -47.623  24.356  25.845  1.00  0.00     0.045 H 
ATOM     25  H   UNL     1     -46.783  25.684  26.647  1.00  0.00     0.045 H 
ENDBRANCH  20  22
ENDBRANCH   6  20
ENDBRANCH   4   5
ENDBRANCH   1   4
BRANCH   1  26
ATOM     26  C   UNL     1     -46.664  33.288  25.943  1.00  0.00     0.010 A 
ATOM     27  C   UNL     1     -46.291  32.568  27.067  1.00  0.00     0.034 A 
ATOM     28  C   UNL     1     -46.839  34.671  26.087  1.00  0.00    -0.028 A 
ATOM     29  N   UNL     1     -46.064  33.128  28.275  1.00  0.00    -0.262 NA
ATOM     30  H   UNL     1     -46.159  31.490  27.033  1.00  0.00     0.084 H 
ATOM     31  C   UNL     1     -46.651  35.288  27.326  1.00  0.00     0.066 A 
ATOM     32  H   UNL     1     -47.124  35.236  25.206  1.00  0.00     0.065 H 
ATOM     33  C   UNL     1     -46.253  34.469  28.378  1.00  0.00     0.051 A 
ATOM     34  H   UNL     1     -46.089  34.835  29.385  1.00  0.00     0.086 H 
BRANCH  31  35
ATOM     35  N   UNL     1     -46.871  36.690  27.518  1.00  0.00    -0.299 N 
ATOM     36  C   UNL     1     -45.881  37.663  27.524  1.00  0.00     0.018 A 
ATOM     37  C   UNL     1     -48.084  37.336  27.748  1.00  0.00     0.150 A 
ATOM     38  C   UNL     1     -46.436  38.913  27.742  1.00  0.00     0.012 A 
ATOM     39  H   UNL     1     -44.848  37.402  27.350  1.00  0.00     0.083 H 
ATOM     40  C   UNL     1     -47.844  38.699  27.885  1.00  0.00     0.067 A 
ATOM     41  N   UNL     1     -49.295  36.756  27.853  1.00  0.00    -0.218 NA
ATOM     42  C   UNL     1     -48.961  39.519  28.123  1.00  0.00     0.136 A 
ATOM     43  C   UNL     1     -50.278  37.629  28.096  1.00  0.00     0.120 A 
ATOM     44  N   UNL     1     -50.182  38.961  28.224  1.00  0.00    -0.219 NA
ATOM     45  H   UNL     1     -51.273  37.208  28.193  1.00  0.00     0.106 H 
BRANCH  38  46
ATOM     46  C   UNL     1     -45.744  40.249  27.839  1.00  0.00     0.085 C 
ATOM     47  C   UNL     1     -44.275  40.277  27.438  1.00  0.00    -0.020 C 
ATOM     48  O   UNL     1     -46.395  41.205  26.968  1.00  0.00    -0.373 OA
ATOM     49  H   UNL     1     -45.851  40.608  28.870  1.00  0.00     0.066 H 
ATOM     50  C   UNL     1     -44.345  40.569  25.960  1.00  0.00    -0.027 C 
ATOM     51  H   UNL     1     -43.781  41.119  27.939  1.00  0.00     0.030 H 
ATOM     52  H   UNL     1     -43.706  39.376  27.682  1.00  0.00     0.030 H 
ATOM     53  C   UNL     1     -45.506  41.534  25.891  1.00  0.00     0.048 C 
ATOM     54  H   UNL     1     -44.578  39.655  25.404  1.00  0.00     0.029 H 
ATOM     55  H   UNL     1     -43.420  40.989  25.553  1.00  0.00     0.029 H 
ATOM     56  H   UNL     1     -46.044  41.475  24.940  1.00  0.00     0.057 H 
ATOM     57  H   UNL     1     -45.174  42.567  26.039  1.00  0.00     0.057 H 
ENDBRANCH  38  46
BRANCH  42  58
ATOM     58  N   UNL     1     -48.886  40.903  28.247  1.00  0.00    -0.383 N 
ATOM     59  H   UNL     1     -49.174  41.345  27.382  1.00  0.00     0.158 HD
ATOM     60  H   UNL     1     -47.985  41.209  28.614  1.00  0.00     0.158 HD
ENDBRANCH  42  58
ENDBRANCH  31  35
ENDBRANCH   1  26
TORSDOF 8
ENDMDL
MODEL 6
REMARK VINA RESULT:      -9.3      2.050      2.747
REMARK SMILES CNc1ccc2ccc(OCc3cncc(-n4cc([C@H]5CCCO5)c5c(N)ncnc54)c3)cc2n1
REMARK SMILES IDX 11 1 10 4 9 5 3 6 4 7 35 8 5 9 34 11 6 12 33 14 7 15 8 17
REMARK SMILES IDX 2 20 1 22 12 26 13 27 32 28 14 29 16 31 15 33 17 35 18 36
REMARK SMILES IDX 31 37 19 38 25 40 30 41 26 42 29 43 28 44 20 46 21 47 24 48
REMARK SMILES IDX 22 50 23 53 27 58
REMARK H PARENT 11 2 11 3 4 10 5 13 33 16 7 18 8 19 2 21 1 23 1 24 1 25 13 30
REMARK H PARENT 32 32 15 34 18 39 29 45 20 49 21 51 21 52 22 54 22 55 23 56
REMARK H PARENT 23 57 27 59 27 60
REMARK Flexibility Score: inf
ROOT
ATOM      1  C   UNL     1     -48.228  35.141  27.250  1.00  0.00     0.115 C 
ATOM      2  H   UNL     1     -49.309  35.126  27.428  1.00  0.00     0.076 H 
ATOM      3  H   UNL     1     -47.777  34.956  28.233  1.00  0.00     0.076 H 
ENDROOT
BRANCH   1   4
ATOM      4  O   UNL     1     -47.761  36.427  26.820  1.00  0.00    -0.489 OA
BRANCH   4   5
ATOM      5  C   UNL     1     -46.810  36.999  27.622  1.00  0.00     0.122 A 
ATOM      6  C   UNL     1     -43.529  40.307  28.585  1.00  0.00     0.126 A 
ATOM      7  C   UNL     1     -43.242  39.726  29.815  1.00  0.00    -0.019 A 
ATOM      8  N   UNL     1     -44.469  39.797  27.764  1.00  0.00    -0.231 NA
ATOM      9  C   UNL     1     -43.929  38.582  30.207  1.00  0.00    -0.049 A 
ATOM     10  H   UNL     1     -42.499  40.166  30.472  1.00  0.00     0.066 H 
ATOM     11  C   UNL     1     -45.142  38.691  28.137  1.00  0.00     0.076 A 
ATOM     12  C   UNL     1     -44.901  38.041  29.364  1.00  0.00     0.001 A 
ATOM     13  H   UNL     1     -43.707  38.129  31.168  1.00  0.00     0.063 H 
ATOM     14  C   UNL     1     -46.109  38.161  27.292  1.00  0.00     0.007 A 
ATOM     15  C   UNL     1     -45.630  36.894  29.718  1.00  0.00    -0.049 A 
ATOM     16  H   UNL     1     -46.308  38.686  26.363  1.00  0.00     0.069 H 
ATOM     17  C   UNL     1     -46.589  36.380  28.848  1.00  0.00    -0.019 A 
ATOM     18  H   UNL     1     -45.453  36.394  30.667  1.00  0.00     0.063 H 
ATOM     19  H   UNL     1     -47.148  35.489  29.118  1.00  0.00     0.066 H 
BRANCH   6  20
ATOM     20  N   UNL     1     -42.831  41.476  28.232  1.00  0.00    -0.373 N 
ATOM     21  H   UNL     1     -41.903  41.451  28.645  1.00  0.00     0.161 HD
BRANCH  20  22
ATOM     22  C   UNL     1     -42.790  41.748  26.806  1.00  0.00     0.005 C 
ATOM     23  H   UNL     1     -43.603  42.416  26.500  1.00  0.00     0.045 H 
ATOM     24  H   UNL     1     -41.828  42.175  26.504  1.00  0.00     0.045 H 
ATOM     25  H   UNL     1     -42.914  40.807  26.260  1.00  0.00     0.045 H 
ENDBRANCH  20  22
ENDBRANCH   6  20
ENDBRANCH   4   5
ENDBRANCH   1   4
BRANCH   1  26
ATOM     26  C   UNL     1     -47.803  34.047  26.309  1.00  0.00     0.010 A 
ATOM     27  C   UNL     1     -46.512  33.989  25.808  1.00  0.00     0.034 A 
ATOM     28  C   UNL     1     -48.715  33.081  25.863  1.00  0.00    -0.028 A 
ATOM     29  N   UNL     1     -46.085  33.044  24.942  1.00  0.00    -0.262 NA
ATOM     30  H   UNL     1     -45.759  34.719  26.093  1.00  0.00     0.084 H 
ATOM     31  C   UNL     1     -48.329  32.107  24.940  1.00  0.00     0.066 A 
ATOM     32  H   UNL     1     -49.724  33.122  26.261  1.00  0.00     0.065 H 
ATOM     33  C   UNL     1     -47.000  32.132  24.525  1.00  0.00     0.051 A 
ATOM     34  H   UNL     1     -46.592  31.433  23.803  1.00  0.00     0.086 H 
BRANCH  31  35
ATOM     35  N   UNL     1     -49.249  31.138  24.427  1.00  0.00    -0.299 N 
ATOM     36  C   UNL     1     -50.211  31.383  23.457  1.00  0.00     0.018 A 
ATOM     37  C   UNL     1     -49.370  29.800  24.798  1.00  0.00     0.150 A 
ATOM     38  C   UNL     1     -50.935  30.232  23.195  1.00  0.00     0.012 A 
ATOM     39  H   UNL     1     -50.302  32.357  23.000  1.00  0.00     0.083 H 
ATOM     40  C   UNL     1     -50.395  29.223  24.055  1.00  0.00     0.067 A 
ATOM     41  N   UNL     1     -48.648  29.160  25.738  1.00  0.00    -0.218 NA
ATOM     42  C   UNL     1     -50.664  27.863  24.296  1.00  0.00     0.136 A 
ATOM     43  C   UNL     1     -49.002  27.880  25.892  1.00  0.00     0.120 A 
ATOM     44  N   UNL     1     -49.949  27.202  25.224  1.00  0.00    -0.219 NA
ATOM     45  H   UNL     1     -48.451  27.321  26.641  1.00  0.00     0.106 H 
BRANCH  38  46
ATOM     46  C   UNL     1     -52.078  30.033  22.232  1.00  0.00     0.085 C 
ATOM     47  C   UNL     1     -52.425  31.222  21.346  1.00  0.00    -0.020 C 
ATOM     48  O   UNL     1     -51.769  28.952  21.318  1.00  0.00    -0.373 OA
ATOM     49  H   UNL     1     -52.959  29.737  22.814  1.00  0.00     0.066 H 
ATOM     50  C   UNL     1     -51.545  31.000  20.141  1.00  0.00    -0.027 C 
ATOM     51  H   UNL     1     -53.474  31.143  21.032  1.00  0.00     0.030 H 
ATOM     52  H   UNL     1     -52.297  32.203  21.809  1.00  0.00     0.030 H 
ATOM     53  C   UNL     1     -51.585  29.495  20.002  1.00  0.00     0.048 C 
ATOM     54  H   UNL     1     -50.523  31.333  20.352  1.00  0.00     0.029 H 
ATOM     55  H   UNL     1     -51.893  31.518  19.243  1.00  0.00     0.029 H 
ATOM     56  H   UNL     1     -50.669  29.090  19.562  1.00  0.00     0.057 H 
ATOM     57  H   UNL     1     -52.435  29.176  19.390  1.00  0.00     0.057 H 
ENDBRANCH  38  46
BRANCH  42  58
ATOM     58  N   UNL     1     -51.631  27.139  23.608  1.00  0.00    -0.383 N 
ATOM     59  H   UNL     1     -51.962  27.670  22.811  1.00  0.00     0.158 HD
ATOM     60  H   UNL     1     -52.360  26.783  24.227  1.00  0.00     0.158 HD
ENDBRANCH  42  58
ENDBRANCH  31  35
ENDBRANCH   1  26
TORSDOF 8
ENDMDL
MODEL 7
REMARK VINA RESULT:      -9.3      1.796      2.299
REMARK SMILES CNc1ccc2ccc(OCc3cncc(-n4cc([C@H]5CCCO5)c5c(N)ncnc54)c3)cc2n1
REMARK SMILES IDX 11 1 10 4 9 5 3 6 4 7 35 8 5 9 34 11 6 12 33 14 7 15 8 17
REMARK SMILES IDX 2 20 1 22 12 26 13 27 32 28 14 29 16 31 15 33 17 35 18 36
REMARK SMILES IDX 31 37 19 38 25 40 30 41 26 42 29 43 28 44 20 46 21 47 24 48
REMARK SMILES IDX 22 50 23 53 27 58
REMARK H PARENT 11 2 11 3 4 10 5 13 33 16 7 18 8 19 2 21 1 23 1 24 1 25 13 30
REMARK H PARENT 32 32 15 34 18 39 29 45 20 49 21 51 21 52 22 54 22 55 23 56
REMARK H PARENT 23 57 27 59 27 60
REMARK Flexibility Score: inf
ROOT
ATOM      1  C   UNL     1     -47.060  36.312  26.600  1.00  0.00     0.115 C 
ATOM      2  H   UNL     1     -46.317  36.703  25.896  1.00  0.00     0.076 H 
ATOM      3  H   UNL     1     -48.030  36.514  26.129  1.00  0.00     0.076 H 
ENDROOT
BRANCH   1   4
ATOM      4  O   UNL     1     -47.055  37.017  27.849  1.00  0.00    -0.489 OA
BRANCH   4   5
ATOM      5  C   UNL     1     -46.086  37.977  27.971  1.00  0.00     0.122 A 
ATOM      6  C   UNL     1     -43.689  41.783  26.423  1.00  0.00     0.126 A 
ATOM      7  C   UNL     1     -42.874  41.782  27.548  1.00  0.00    -0.019 A 
ATOM      8  N   UNL     1     -44.671  40.873  26.259  1.00  0.00    -0.231 NA
ATOM      9  C   UNL     1     -43.062  40.811  28.526  1.00  0.00    -0.049 A 
ATOM     10  H   UNL     1     -42.105  42.537  27.673  1.00  0.00     0.066 H 
ATOM     11  C   UNL     1     -44.862  39.931  27.203  1.00  0.00     0.076 A 
ATOM     12  C   UNL     1     -44.071  39.859  28.366  1.00  0.00     0.001 A 
ATOM     13  H   UNL     1     -42.426  40.810  29.406  1.00  0.00     0.063 H 
ATOM     14  C   UNL     1     -45.870  38.991  27.035  1.00  0.00     0.007 A 
ATOM     15  C   UNL     1     -44.308  38.865  29.330  1.00  0.00    -0.049 A 
ATOM     16  H   UNL     1     -46.494  39.073  26.150  1.00  0.00     0.069 H 
ATOM     17  C   UNL     1     -45.321  37.931  29.133  1.00  0.00    -0.019 A 
ATOM     18  H   UNL     1     -43.705  38.812  30.233  1.00  0.00     0.063 H 
ATOM     19  H   UNL     1     -45.501  37.157  29.873  1.00  0.00     0.066 H 
BRANCH   6  20
ATOM     20  N   UNL     1     -43.485  42.794  25.465  1.00  0.00    -0.373 N 
ATOM     21  H   UNL     1     -44.213  43.497  25.558  1.00  0.00     0.161 HD
BRANCH  20  22
ATOM     22  C   UNL     1     -42.154  43.375  25.475  1.00  0.00     0.005 C 
ATOM     23  H   UNL     1     -42.168  44.407  25.844  1.00  0.00     0.045 H 
ATOM     24  H   UNL     1     -41.458  42.778  26.074  1.00  0.00     0.045 H 
ATOM     25  H   UNL     1     -41.768  43.397  24.451  1.00  0.00     0.045 H 
ENDBRANCH  20  22
ENDBRANCH   6  20
ENDBRANCH   4   5
ENDBRANCH   1   4
BRANCH   1  26
ATOM     26  C   UNL     1     -46.917  34.827  26.794  1.00  0.00     0.010 A 
ATOM     27  C   UNL     1     -46.230  34.305  27.879  1.00  0.00     0.034 A 
ATOM     28  C   UNL     1     -47.426  33.922  25.853  1.00  0.00    -0.028 A 
ATOM     29  N   UNL     1     -46.050  32.983  28.088  1.00  0.00    -0.262 NA
ATOM     30  H   UNL     1     -45.790  34.950  28.635  1.00  0.00     0.084 H 
ATOM     31  C   UNL     1     -47.233  32.547  26.009  1.00  0.00     0.066 A 
ATOM     32  H   UNL     1     -47.970  34.330  25.008  1.00  0.00     0.065 H 
ATOM     33  C   UNL     1     -46.548  32.138  27.150  1.00  0.00     0.051 A 
ATOM     34  H   UNL     1     -46.330  31.099  27.369  1.00  0.00     0.086 H 
BRANCH  31  35
ATOM     35  N   UNL     1     -47.695  31.600  25.041  1.00  0.00    -0.299 N 
ATOM     36  C   UNL     1     -48.681  30.647  25.259  1.00  0.00     0.018 A 
ATOM     37  C   UNL     1     -47.250  31.438  23.730  1.00  0.00     0.150 A 
ATOM     38  C   UNL     1     -48.881  29.891  24.116  1.00  0.00     0.012 A 
ATOM     39  H   UNL     1     -49.191  30.586  26.208  1.00  0.00     0.083 H 
ATOM     40  C   UNL     1     -47.964  30.399  23.142  1.00  0.00     0.067 A 
ATOM     41  N   UNL     1     -46.274  32.139  23.122  1.00  0.00    -0.218 NA
ATOM     42  C   UNL     1     -47.649  30.089  21.806  1.00  0.00     0.136 A 
ATOM     43  C   UNL     1     -46.050  31.748  21.863  1.00  0.00     0.120 A 
ATOM     44  N   UNL     1     -46.682  30.783  21.177  1.00  0.00    -0.219 NA
ATOM     45  H   UNL     1     -45.268  32.280  21.332  1.00  0.00     0.106 H 
BRANCH  38  46
ATOM     46  C   UNL     1     -49.836  28.744  23.898  1.00  0.00     0.085 C 
ATOM     47  C   UNL     1     -49.205  27.400  23.557  1.00  0.00    -0.020 C 
ATOM     48  O   UNL     1     -50.608  28.510  25.100  1.00  0.00    -0.373 OA
ATOM     49  H   UNL     1     -50.533  29.036  23.103  1.00  0.00     0.066 H 
ATOM     50  C   UNL     1     -48.989  26.787  24.918  1.00  0.00    -0.027 C 
ATOM     51  H   UNL     1     -49.935  26.789  23.010  1.00  0.00     0.030 H 
ATOM     52  H   UNL     1     -48.300  27.449  22.948  1.00  0.00     0.030 H 
ATOM     53  C   UNL     1     -50.218  27.250  25.665  1.00  0.00     0.048 C 
ATOM     54  H   UNL     1     -48.086  27.200  25.381  1.00  0.00     0.029 H 
ATOM     55  H   UNL     1     -48.891  25.697  24.897  1.00  0.00     0.029 H 
ATOM     56  H   UNL     1     -50.037  27.368  26.738  1.00  0.00     0.057 H 
ATOM     57  H   UNL     1     -51.052  26.553  25.528  1.00  0.00     0.057 H 
ENDBRANCH  38  46
BRANCH  42  58
ATOM     58  N   UNL     1     -48.299  29.102  21.073  1.00  0.00    -0.383 N 
ATOM     59  H   UNL     1     -47.633  28.410  20.756  1.00  0.00     0.158 HD
ATOM     60  H   UNL     1     -48.901  29.494  20.348  1.00  0.00     0.158 HD
ENDBRANCH  42  58
ENDBRANCH  31  35
ENDBRANCH   1  26
TORSDOF 8
ENDMDL
