MODEL 1
REMARK VINA RESULT:     -10.1      0.000      0.000
REMARK SMILES O=C(NCc1ccc2cc(CN3CCC3)[nH]c2c1)c1cc(=O)n2ccccc2n1
REMARK SMILES IDX 5 1 6 2 7 3 8 4 9 5 10 6 16 7 17 8 18 9 4 15 3 18 1 19 2 20
REMARK SMILES IDX 19 22 20 23 29 24 21 25 28 27 22 28 23 29 27 30 24 31 26 32
REMARK SMILES IDX 25 34 11 38 12 41 13 42 15 43 14 44
REMARK H PARENT 6 10 7 11 9 12 16 13 18 14 4 16 4 17 3 21 20 26 27 33 24 35
REMARK H PARENT 26 36 25 37 11 39 11 40 13 45 13 46 15 47 15 48 14 49 14 50
REMARK Flexibility Score: inf
ROOT
ATOM      1  C   UNL     1     -47.874  34.820  26.652  1.00  0.00    -0.027 A 
ATOM      2  C   UNL     1     -46.593  34.720  26.094  1.00  0.00    -0.057 A 
ATOM      3  C   UNL     1     -46.236  33.629  25.289  1.00  0.00    -0.052 A 
ATOM      4  C   UNL     1     -47.180  32.615  25.045  1.00  0.00    -0.000 A 
ATOM      5  C   UNL     1     -47.162  31.404  24.302  1.00  0.00    -0.032 A 
ATOM      6  C   UNL     1     -48.400  30.802  24.427  1.00  0.00     0.030 A 
ATOM      7  N   UNL     1     -49.164  31.618  25.226  1.00  0.00    -0.357 N 
ATOM      8  C   UNL     1     -48.446  32.725  25.616  1.00  0.00     0.046 A 
ATOM      9  C   UNL     1     -48.820  33.807  26.423  1.00  0.00    -0.033 A 
ATOM     10  H   UNL     1     -45.852  35.496  26.280  1.00  0.00     0.063 H 
ATOM     11  H   UNL     1     -45.242  33.569  24.857  1.00  0.00     0.063 H 
ATOM     12  H   UNL     1     -46.333  31.012  23.725  1.00  0.00     0.065 H 
ATOM     13  H   UNL     1     -50.124  31.444  25.487  1.00  0.00     0.166 HD
ATOM     14  H   UNL     1     -49.812  33.862  26.862  1.00  0.00     0.065 H 
ENDROOT
BRANCH   1  15
ATOM     15  C   UNL     1     -48.225  35.985  27.540  1.00  0.00     0.043 C 
ATOM     16  H   UNL     1     -48.371  35.655  28.575  1.00  0.00     0.054 H 
ATOM     17  H   UNL     1     -49.166  36.451  27.222  1.00  0.00     0.054 H 
BRANCH  15  18
ATOM     18  N   UNL     1     -47.191  36.985  27.502  1.00  0.00    -0.347 N 
ATOM     19  O   UNL     1     -46.412  36.604  29.627  1.00  0.00    -0.268 OA
ATOM     20  C   UNL     1     -46.390  37.245  28.584  1.00  0.00     0.270 C 
ATOM     21  H   UNL     1     -47.142  37.637  26.725  1.00  0.00     0.164 HD
BRANCH  20  22
ATOM     22  C   UNL     1     -45.477  38.425  28.355  1.00  0.00     0.136 A 
ATOM     23  C   UNL     1     -45.715  39.160  27.267  1.00  0.00     0.035 A 
ATOM     24  N   UNL     1     -44.471  38.668  29.262  1.00  0.00    -0.225 NA
ATOM     25  C   UNL     1     -44.850  40.317  27.006  1.00  0.00     0.258 A 
ATOM     26  H   UNL     1     -46.510  38.958  26.560  1.00  0.00     0.071 H 
ATOM     27  C   UNL     1     -43.707  39.691  29.028  1.00  0.00     0.140 A 
ATOM     28  O   UNL     1     -45.062  41.002  26.007  1.00  0.00    -0.269 OA
ATOM     29  N   UNL     1     -43.844  40.540  27.935  1.00  0.00    -0.268 N 
ATOM     30  C   UNL     1     -42.604  39.992  29.984  1.00  0.00    -0.019 A 
ATOM     31  C   UNL     1     -42.983  41.618  27.755  1.00  0.00     0.014 A 
ATOM     32  C   UNL     1     -41.802  41.041  29.768  1.00  0.00    -0.057 A 
ATOM     33  H   UNL     1     -42.490  39.337  30.838  1.00  0.00     0.066 H 
ATOM     34  C   UNL     1     -41.994  41.883  28.617  1.00  0.00    -0.045 A 
ATOM     35  H   UNL     1     -43.147  42.241  26.878  1.00  0.00     0.082 H 
ATOM     36  H   UNL     1     -40.993  41.277  30.452  1.00  0.00     0.062 H 
ATOM     37  H   UNL     1     -41.328  42.726  28.468  1.00  0.00     0.064 H 
ENDBRANCH  20  22
ENDBRANCH  15  18
ENDBRANCH   1  15
BRANCH   6  38
ATOM     38  C   UNL     1     -48.923  29.519  23.865  1.00  0.00     0.038 C 
ATOM     39  H   UNL     1     -49.680  29.776  23.112  1.00  0.00     0.050 H 
ATOM     40  H   UNL     1     -48.127  28.981  23.335  1.00  0.00     0.050 H 
BRANCH  38  41
ATOM     41  N   UNL     1     -49.555  28.713  24.917  1.00  0.00    -0.298 NA
ATOM     42  C   UNL     1     -48.555  28.182  25.872  1.00  0.00    -0.000 C 
ATOM     43  C   UNL     1     -49.813  27.338  24.433  1.00  0.00    -0.000 C 
ATOM     44  C   UNL     1     -48.490  26.879  25.064  1.00  0.00    -0.028 C 
ATOM     45  H   UNL     1     -48.965  28.049  26.881  1.00  0.00     0.043 H 
ATOM     46  H   UNL     1     -47.609  28.725  25.962  1.00  0.00     0.043 H 
ATOM     47  H   UNL     1     -50.697  26.884  24.897  1.00  0.00     0.043 H 
ATOM     48  H   UNL     1     -49.891  27.202  23.349  1.00  0.00     0.043 H 
ATOM     49  H   UNL     1     -48.532  25.952  25.642  1.00  0.00     0.029 H 
ATOM     50  H   UNL     1     -47.651  26.827  24.361  1.00  0.00     0.029 H 
ENDBRANCH  38  41
ENDBRANCH   6  38
TORSDOF 5
ENDMDL
MODEL 2
REMARK VINA RESULT:     -10.1      2.063      3.271
REMARK SMILES O=C(NCc1ccc2cc(CN3CCC3)[nH]c2c1)c1cc(=O)n2ccccc2n1
REMARK SMILES IDX 5 1 6 2 7 3 8 4 9 5 10 6 16 7 17 8 18 9 4 15 3 18 1 19 2 20
REMARK SMILES IDX 19 22 20 23 29 24 21 25 28 27 22 28 23 29 27 30 24 31 26 32
REMARK SMILES IDX 25 34 11 38 12 41 13 42 15 43 14 44
REMARK H PARENT 6 10 7 11 9 12 16 13 18 14 4 16 4 17 3 21 20 26 27 33 24 35
REMARK H PARENT 26 36 25 37 11 39 11 40 13 45 13 46 15 47 15 48 14 49 14 50
REMARK Flexibility Score: inf
ROOT
ATOM      1  C   UNL     1     -46.609  35.744  28.377  1.00  0.00    -0.027 A 
ATOM      2  C   UNL     1     -47.955  35.864  28.010  1.00  0.00    -0.057 A 
ATOM      3  C   UNL     1     -48.499  35.079  26.984  1.00  0.00    -0.052 A 
ATOM      4  C   UNL     1     -47.674  34.161  26.307  1.00  0.00    -0.000 A 
ATOM      5  C   UNL     1     -47.883  33.235  25.251  1.00  0.00    -0.032 A 
ATOM      6  C   UNL     1     -46.687  32.592  24.996  1.00  0.00     0.030 A 
ATOM      7  N   UNL     1     -45.761  33.106  25.873  1.00  0.00    -0.357 N 
ATOM      8  C   UNL     1     -46.335  34.062  26.679  1.00  0.00     0.046 A 
ATOM      9  C   UNL     1     -45.774  34.838  27.701  1.00  0.00    -0.033 A 
ATOM     10  H   UNL     1     -48.601  36.574  28.522  1.00  0.00     0.063 H 
ATOM     11  H   UNL     1     -49.546  35.178  26.714  1.00  0.00     0.063 H 
ATOM     12  H   UNL     1     -48.815  33.047  24.731  1.00  0.00     0.065 H 
ATOM     13  H   UNL     1     -44.794  32.820  25.932  1.00  0.00     0.166 HD
ATOM     14  H   UNL     1     -44.725  34.745  27.963  1.00  0.00     0.065 H 
ENDROOT
BRANCH   1  15
ATOM     15  C   UNL     1     -46.038  36.620  29.461  1.00  0.00     0.043 C 
ATOM     16  H   UNL     1     -45.375  36.045  30.118  1.00  0.00     0.054 H 
ATOM     17  H   UNL     1     -46.834  37.028  30.096  1.00  0.00     0.054 H 
BRANCH  15  18
ATOM     18  N   UNL     1     -45.306  37.721  28.894  1.00  0.00    -0.347 N 
ATOM     19  O   UNL     1     -44.148  38.248  30.806  1.00  0.00    -0.268 OA
ATOM     20  C   UNL     1     -44.444  38.483  29.640  1.00  0.00     0.270 C 
ATOM     21  H   UNL     1     -45.538  38.064  27.967  1.00  0.00     0.164 HD
BRANCH  20  22
ATOM     22  C   UNL     1     -43.900  39.662  28.870  1.00  0.00     0.136 A 
ATOM     23  C   UNL     1     -42.898  40.335  29.439  1.00  0.00     0.035 A 
ATOM     24  N   UNL     1     -44.461  39.971  27.651  1.00  0.00    -0.225 NA
ATOM     25  C   UNL     1     -42.340  41.489  28.723  1.00  0.00     0.258 A 
ATOM     26  H   UNL     1     -42.466  40.082  30.399  1.00  0.00     0.071 H 
ATOM     27  C   UNL     1     -43.965  40.992  27.022  1.00  0.00     0.140 A 
ATOM     28  O   UNL     1     -41.414  42.113  29.239  1.00  0.00    -0.269 OA
ATOM     29  N   UNL     1     -42.922  41.778  27.498  1.00  0.00    -0.268 N 
ATOM     30  C   UNL     1     -44.541  41.363  25.699  1.00  0.00    -0.019 A 
ATOM     31  C   UNL     1     -42.447  42.859  26.761  1.00  0.00     0.014 A 
ATOM     32  C   UNL     1     -44.050  42.411  25.027  1.00  0.00    -0.057 A 
ATOM     33  H   UNL     1     -45.354  40.757  25.319  1.00  0.00     0.066 H 
ATOM     34  C   UNL     1     -42.969  43.186  25.573  1.00  0.00    -0.045 A 
ATOM     35  H   UNL     1     -41.629  43.430  27.193  1.00  0.00     0.082 H 
ATOM     36  H   UNL     1     -44.457  42.697  24.062  1.00  0.00     0.062 H 
ATOM     37  H   UNL     1     -42.591  44.031  25.006  1.00  0.00     0.064 H 
ENDBRANCH  20  22
ENDBRANCH  15  18
ENDBRANCH   1  15
BRANCH   6  38
ATOM     38  C   UNL     1     -46.337  31.540  23.994  1.00  0.00     0.038 C 
ATOM     39  H   UNL     1     -45.465  31.900  23.432  1.00  0.00     0.050 H 
ATOM     40  H   UNL     1     -46.021  30.619  24.502  1.00  0.00     0.050 H 
BRANCH  38  41
ATOM     41  N   UNL     1     -47.448  31.325  23.059  1.00  0.00    -0.298 NA
ATOM     42  C   UNL     1     -48.279  30.164  23.457  1.00  0.00    -0.000 C 
ATOM     43  C   UNL     1     -46.987  30.578  21.868  1.00  0.00    -0.000 C 
ATOM     44  C   UNL     1     -47.459  29.269  22.518  1.00  0.00    -0.028 C 
ATOM     45  H   UNL     1     -49.327  30.272  23.152  1.00  0.00     0.043 H 
ATOM     46  H   UNL     1     -48.264  29.874  24.512  1.00  0.00     0.043 H 
ATOM     47  H   UNL     1     -47.546  30.840  20.961  1.00  0.00     0.043 H 
ATOM     48  H   UNL     1     -45.919  30.630  21.633  1.00  0.00     0.043 H 
ATOM     49  H   UNL     1     -48.033  28.595  21.876  1.00  0.00     0.029 H 
ATOM     50  H   UNL     1     -46.665  28.702  23.016  1.00  0.00     0.029 H 
ENDBRANCH  38  41
ENDBRANCH   6  38
TORSDOF 5
ENDMDL
MODEL 3
REMARK VINA RESULT:      -9.6      1.926      2.874
REMARK SMILES O=C(NCc1ccc2cc(CN3CCC3)[nH]c2c1)c1cc(=O)n2ccccc2n1
REMARK SMILES IDX 5 1 6 2 7 3 8 4 9 5 10 6 16 7 17 8 18 9 4 15 3 18 1 19 2 20
REMARK SMILES IDX 19 22 20 23 29 24 21 25 28 27 22 28 23 29 27 30 24 31 26 32
REMARK SMILES IDX 25 34 11 38 12 41 13 42 15 43 14 44
REMARK H PARENT 6 10 7 11 9 12 16 13 18 14 4 16 4 17 3 21 20 26 27 33 24 35
REMARK H PARENT 26 36 25 37 11 39 11 40 13 45 13 46 15 47 15 48 14 49 14 50
REMARK Flexibility Score: inf
ROOT
ATOM      1  C   UNL     1     -46.456  35.699  27.821  1.00  0.00    -0.027 A 
ATOM      2  C   UNL     1     -47.849  35.693  27.667  1.00  0.00    -0.057 A 
ATOM      3  C   UNL     1     -48.480  34.778  26.815  1.00  0.00    -0.052 A 
ATOM      4  C   UNL     1     -47.699  33.854  26.096  1.00  0.00    -0.000 A 
ATOM      5  C   UNL     1     -47.995  32.816  25.171  1.00  0.00    -0.032 A 
ATOM      6  C   UNL     1     -46.804  32.231  24.784  1.00  0.00     0.030 A 
ATOM      7  N   UNL     1     -45.799  32.888  25.451  1.00  0.00    -0.357 N 
ATOM      8  C   UNL     1     -46.315  33.879  26.254  1.00  0.00     0.046 A 
ATOM      9  C   UNL     1     -45.667  34.787  27.100  1.00  0.00    -0.033 A 
ATOM     10  H   UNL     1     -48.462  36.407  28.213  1.00  0.00     0.063 H 
ATOM     11  H   UNL     1     -49.561  34.781  26.710  1.00  0.00     0.063 H 
ATOM     12  H   UNL     1     -48.978  32.518  24.827  1.00  0.00     0.065 H 
ATOM     13  H   UNL     1     -44.814  32.673  25.378  1.00  0.00     0.166 HD
ATOM     14  H   UNL     1     -44.585  34.789  27.196  1.00  0.00     0.065 H 
ENDROOT
BRANCH   1  15
ATOM     15  C   UNL     1     -45.797  36.713  28.718  1.00  0.00     0.043 C 
ATOM     16  H   UNL     1     -44.887  36.299  29.170  1.00  0.00     0.054 H 
ATOM     17  H   UNL     1     -46.460  36.994  29.546  1.00  0.00     0.054 H 
BRANCH  15  18
ATOM     18  N   UNL     1     -45.462  37.903  27.983  1.00  0.00    -0.347 N 
ATOM     19  O   UNL     1     -44.222  38.874  29.653  1.00  0.00    -0.268 OA
ATOM     20  C   UNL     1     -44.730  38.921  28.539  1.00  0.00     0.270 C 
ATOM     21  H   UNL     1     -45.905  38.090  27.089  1.00  0.00     0.164 HD
BRANCH  20  22
ATOM     22  C   UNL     1     -44.626  40.121  27.630  1.00  0.00     0.136 A 
ATOM     23  C   UNL     1     -45.764  40.557  27.087  1.00  0.00     0.035 A 
ATOM     24  N   UNL     1     -43.387  40.681  27.414  1.00  0.00    -0.225 NA
ATOM     25  C   UNL     1     -45.707  41.722  26.195  1.00  0.00     0.258 A 
ATOM     26  H   UNL     1     -46.732  40.107  27.263  1.00  0.00     0.071 H 
ATOM     27  C   UNL     1     -43.341  41.710  26.624  1.00  0.00     0.140 A 
ATOM     28  O   UNL     1     -46.751  42.134  25.692  1.00  0.00    -0.269 OA
ATOM     29  N   UNL     1     -44.448  42.268  25.995  1.00  0.00    -0.268 N 
ATOM     30  C   UNL     1     -42.021  42.350  26.362  1.00  0.00    -0.019 A 
ATOM     31  C   UNL     1     -44.314  43.374  25.161  1.00  0.00     0.014 A 
ATOM     32  C   UNL     1     -41.943  43.412  25.553  1.00  0.00    -0.057 A 
ATOM     33  H   UNL     1     -41.153  41.922  26.848  1.00  0.00     0.066 H 
ATOM     34  C   UNL     1     -43.125  43.944  24.930  1.00  0.00    -0.045 A 
ATOM     35  H   UNL     1     -45.222  43.759  24.701  1.00  0.00     0.082 H 
ATOM     36  H   UNL     1     -40.990  43.892  25.349  1.00  0.00     0.062 H 
ATOM     37  H   UNL     1     -43.032  44.806  24.278  1.00  0.00     0.064 H 
ENDBRANCH  20  22
ENDBRANCH  15  18
ENDBRANCH   1  15
BRANCH   6  38
ATOM     38  C   UNL     1     -46.531  31.110  23.833  1.00  0.00     0.038 C 
ATOM     39  H   UNL     1     -46.071  31.546  22.936  1.00  0.00     0.050 H 
ATOM     40  H   UNL     1     -45.790  30.421  24.259  1.00  0.00     0.050 H 
BRANCH  38  41
ATOM     41  N   UNL     1     -47.779  30.441  23.449  1.00  0.00    -0.298 NA
ATOM     42  C   UNL     1     -48.126  29.350  24.389  1.00  0.00    -0.000 C 
ATOM     43  C   UNL     1     -47.526  29.438  22.390  1.00  0.00    -0.000 C 
ATOM     44  C   UNL     1     -47.429  28.344  23.463  1.00  0.00    -0.028 C 
ATOM     45  H   UNL     1     -49.209  29.191  24.470  1.00  0.00     0.043 H 
ATOM     46  H   UNL     1     -47.719  29.413  25.403  1.00  0.00     0.043 H 
ATOM     47  H   UNL     1     -48.381  29.310  21.714  1.00  0.00     0.043 H 
ATOM     48  H   UNL     1     -46.630  29.580  21.778  1.00  0.00     0.043 H 
ATOM     49  H   UNL     1     -47.978  27.421  23.257  1.00  0.00     0.029 H 
ATOM     50  H   UNL     1     -46.404  28.095  23.759  1.00  0.00     0.029 H 
ENDBRANCH  38  41
ENDBRANCH   6  38
TORSDOF 5
ENDMDL
MODEL 4
REMARK VINA RESULT:      -9.5      2.623      4.579
REMARK SMILES O=C(NCc1ccc2cc(CN3CCC3)[nH]c2c1)c1cc(=O)n2ccccc2n1
REMARK SMILES IDX 5 1 6 2 7 3 8 4 9 5 10 6 16 7 17 8 18 9 4 15 3 18 1 19 2 20
REMARK SMILES IDX 19 22 20 23 29 24 21 25 28 27 22 28 23 29 27 30 24 31 26 32
REMARK SMILES IDX 25 34 11 38 12 41 13 42 15 43 14 44
REMARK H PARENT 6 10 7 11 9 12 16 13 18 14 4 16 4 17 3 21 20 26 27 33 24 35
REMARK H PARENT 26 36 25 37 11 39 11 40 13 45 13 46 15 47 15 48 14 49 14 50
REMARK Flexibility Score: inf
ROOT
ATOM      1  C   UNL     1     -45.680  37.600  28.348  1.00  0.00    -0.027 A 
ATOM      2  C   UNL     1     -46.977  37.989  27.987  1.00  0.00    -0.057 A 
ATOM      3  C   UNL     1     -47.849  37.098  27.348  1.00  0.00    -0.052 A 
ATOM      4  C   UNL     1     -47.410  35.793  27.057  1.00  0.00    -0.000 A 
ATOM      5  C   UNL     1     -48.007  34.663  26.437  1.00  0.00    -0.032 A 
ATOM      6  C   UNL     1     -47.082  33.636  26.426  1.00  0.00     0.030 A 
ATOM      7  N   UNL     1     -45.942  34.118  27.024  1.00  0.00    -0.357 N 
ATOM      8  C   UNL     1     -46.114  35.426  27.415  1.00  0.00     0.046 A 
ATOM      9  C   UNL     1     -45.229  36.303  28.054  1.00  0.00    -0.033 A 
ATOM     10  H   UNL     1     -47.325  38.998  28.201  1.00  0.00     0.063 H 
ATOM     11  H   UNL     1     -48.853  37.411  27.080  1.00  0.00     0.063 H 
ATOM     12  H   UNL     1     -49.015  34.598  26.045  1.00  0.00     0.065 H 
ATOM     13  H   UNL     1     -45.093  33.590  27.170  1.00  0.00     0.166 HD
ATOM     14  H   UNL     1     -44.221  35.991  28.313  1.00  0.00     0.065 H 
ENDROOT
BRANCH   1  15
ATOM     15  C   UNL     1     -44.749  38.585  29.006  1.00  0.00     0.043 C 
ATOM     16  H   UNL     1     -43.813  38.097  29.303  1.00  0.00     0.054 H 
ATOM     17  H   UNL     1     -45.194  38.995  29.921  1.00  0.00     0.054 H 
BRANCH  15  18
ATOM     18  N   UNL     1     -44.455  39.679  28.120  1.00  0.00    -0.347 N 
ATOM     19  O   UNL     1     -42.724  40.534  29.363  1.00  0.00    -0.268 OA
ATOM     20  C   UNL     1     -43.482  40.603  28.402  1.00  0.00     0.270 C 
ATOM     21  H   UNL     1     -45.076  39.887  27.344  1.00  0.00     0.164 HD
BRANCH  20  22
ATOM     22  C   UNL     1     -43.449  41.732  27.400  1.00  0.00     0.136 A 
ATOM     23  C   UNL     1     -42.275  41.975  26.816  1.00  0.00     0.035 A 
ATOM     24  N   UNL     1     -44.608  42.432  27.156  1.00  0.00    -0.225 NA
ATOM     25  C   UNL     1     -42.199  43.065  25.835  1.00  0.00     0.258 A 
ATOM     26  H   UNL     1     -41.369  41.417  27.017  1.00  0.00     0.071 H 
ATOM     27  C   UNL     1     -44.537  43.396  26.289  1.00  0.00     0.140 A 
ATOM     28  O   UNL     1     -41.121  43.295  25.289  1.00  0.00    -0.269 OA
ATOM     29  N   UNL     1     -43.380  43.755  25.606  1.00  0.00    -0.268 N 
ATOM     30  C   UNL     1     -45.768  44.182  25.993  1.00  0.00    -0.019 A 
ATOM     31  C   UNL     1     -43.386  44.803  24.690  1.00  0.00     0.014 A 
ATOM     32  C   UNL     1     -45.724  45.180  25.103  1.00  0.00    -0.057 A 
ATOM     33  H   UNL     1     -46.674  43.909  26.519  1.00  0.00     0.066 H 
ATOM     34  C   UNL     1     -44.495  45.504  24.429  1.00  0.00    -0.045 A 
ATOM     35  H   UNL     1     -42.446  45.029  24.193  1.00  0.00     0.082 H 
ATOM     36  H   UNL     1     -46.610  45.765  24.874  1.00  0.00     0.062 H 
ATOM     37  H   UNL     1     -44.490  46.319  23.713  1.00  0.00     0.064 H 
ENDBRANCH  20  22
ENDBRANCH  15  18
ENDBRANCH   1  15
BRANCH   6  38
ATOM     38  C   UNL     1     -47.175  32.243  25.894  1.00  0.00     0.038 C 
ATOM     39  H   UNL     1     -46.219  31.746  26.107  1.00  0.00     0.050 H 
ATOM     40  H   UNL     1     -47.946  31.678  26.436  1.00  0.00     0.050 H 
BRANCH  38  41
ATOM     41  N   UNL     1     -47.391  32.256  24.442  1.00  0.00    -0.298 NA
ATOM     42  C   UNL     1     -48.424  31.274  24.036  1.00  0.00    -0.000 C 
ATOM     43  C   UNL     1     -46.361  31.445  23.757  1.00  0.00    -0.000 C 
ATOM     44  C   UNL     1     -47.320  30.246  23.752  1.00  0.00    -0.028 C 
ATOM     45  H   UNL     1     -48.971  31.586  23.137  1.00  0.00     0.043 H 
ATOM     46  H   UNL     1     -49.159  30.977  24.790  1.00  0.00     0.043 H 
ATOM     47  H   UNL     1     -46.126  31.819  22.752  1.00  0.00     0.043 H 
ATOM     48  H   UNL     1     -45.416  31.291  24.289  1.00  0.00     0.043 H 
ATOM     49  H   UNL     1     -47.403  29.702  22.808  1.00  0.00     0.029 H 
ATOM     50  H   UNL     1     -47.151  29.532  24.566  1.00  0.00     0.029 H 
ENDBRANCH  38  41
ENDBRANCH   6  38
TORSDOF 5
ENDMDL
MODEL 5
REMARK VINA RESULT:      -9.4      2.857     10.878
REMARK SMILES O=C(NCc1ccc2cc(CN3CCC3)[nH]c2c1)c1cc(=O)n2ccccc2n1
REMARK SMILES IDX 5 1 6 2 7 3 8 4 9 5 10 6 16 7 17 8 18 9 4 15 3 18 1 19 2 20
REMARK SMILES IDX 19 22 20 23 29 24 21 25 28 27 22 28 23 29 27 30 24 31 26 32
REMARK SMILES IDX 25 34 11 38 12 41 13 42 15 43 14 44
REMARK H PARENT 6 10 7 11 9 12 16 13 18 14 4 16 4 17 3 21 20 26 27 33 24 35
REMARK H PARENT 26 36 25 37 11 39 11 40 13 45 13 46 15 47 15 48 14 49 14 50
REMARK Flexibility Score: inf
ROOT
ATOM      1  C   UNL     1     -47.927  34.419  26.760  1.00  0.00    -0.027 A 
ATOM      2  C   UNL     1     -46.753  33.865  27.286  1.00  0.00    -0.057 A 
ATOM      3  C   UNL     1     -45.719  34.680  27.766  1.00  0.00    -0.052 A 
ATOM      4  C   UNL     1     -45.862  36.078  27.712  1.00  0.00    -0.000 A 
ATOM      5  C   UNL     1     -45.041  37.172  28.096  1.00  0.00    -0.032 A 
ATOM      6  C   UNL     1     -45.712  38.343  27.796  1.00  0.00     0.030 A 
ATOM      7  N   UNL     1     -46.917  37.983  27.241  1.00  0.00    -0.357 N 
ATOM      8  C   UNL     1     -47.032  36.613  27.177  1.00  0.00     0.046 A 
ATOM      9  C   UNL     1     -48.075  35.815  26.691  1.00  0.00    -0.033 A 
ATOM     10  H   UNL     1     -46.629  32.784  27.328  1.00  0.00     0.063 H 
ATOM     11  H   UNL     1     -44.818  34.235  28.177  1.00  0.00     0.063 H 
ATOM     12  H   UNL     1     -44.061  37.115  28.555  1.00  0.00     0.065 H 
ATOM     13  H   UNL     1     -47.630  38.627  26.929  1.00  0.00     0.166 HD
ATOM     14  H   UNL     1     -48.973  36.260  26.272  1.00  0.00     0.065 H 
ENDROOT
BRANCH   1  15
ATOM     15  C   UNL     1     -49.012  33.525  26.219  1.00  0.00     0.043 C 
ATOM     16  H   UNL     1     -49.459  33.957  25.317  1.00  0.00     0.054 H 
ATOM     17  H   UNL     1     -49.824  33.409  26.948  1.00  0.00     0.054 H 
BRANCH  15  18
ATOM     18  N   UNL     1     -48.492  32.219  25.914  1.00  0.00    -0.347 N 
ATOM     19  O   UNL     1     -50.020  31.731  24.272  1.00  0.00    -0.268 OA
ATOM     20  C   UNL     1     -49.079  31.401  24.983  1.00  0.00     0.270 C 
ATOM     21  H   UNL     1     -47.774  31.806  26.502  1.00  0.00     0.164 HD
BRANCH  20  22
ATOM     22  C   UNL     1     -48.443  30.033  24.935  1.00  0.00     0.136 A 
ATOM     23  C   UNL     1     -47.516  29.840  23.995  1.00  0.00     0.035 A 
ATOM     24  N   UNL     1     -48.851  29.081  25.841  1.00  0.00    -0.225 NA
ATOM     25  C   UNL     1     -46.872  28.523  23.912  1.00  0.00     0.258 A 
ATOM     26  H   UNL     1     -47.203  30.597  23.286  1.00  0.00     0.071 H 
ATOM     27  C   UNL     1     -48.281  27.918  25.765  1.00  0.00     0.140 A 
ATOM     28  O   UNL     1     -46.014  28.336  23.051  1.00  0.00    -0.269 OA
ATOM     29  N   UNL     1     -47.301  27.582  24.837  1.00  0.00    -0.268 N 
ATOM     30  C   UNL     1     -48.692  26.857  26.727  1.00  0.00    -0.019 A 
ATOM     31  C   UNL     1     -46.738  26.310  24.820  1.00  0.00     0.014 A 
ATOM     32  C   UNL     1     -48.121  25.648  26.672  1.00  0.00    -0.057 A 
ATOM     33  H   UNL     1     -49.455  27.108  27.453  1.00  0.00     0.066 H 
ATOM     34  C   UNL     1     -47.112  25.362  25.688  1.00  0.00    -0.045 A 
ATOM     35  H   UNL     1     -45.977  26.117  24.068  1.00  0.00     0.082 H 
ATOM     36  H   UNL     1     -48.407  24.862  27.364  1.00  0.00     0.062 H 
ATOM     37  H   UNL     1     -46.666  24.373  25.666  1.00  0.00     0.064 H 
ENDBRANCH  20  22
ENDBRANCH  15  18
ENDBRANCH   1  15
BRANCH   6  38
ATOM     38  C   UNL     1     -45.315  39.772  27.979  1.00  0.00     0.038 C 
ATOM     39  H   UNL     1     -46.084  40.390  27.500  1.00  0.00     0.050 H 
ATOM     40  H   UNL     1     -45.323  40.036  29.045  1.00  0.00     0.050 H 
BRANCH  38  41
ATOM     41  N   UNL     1     -44.023  40.037  27.335  1.00  0.00    -0.298 NA
ATOM     42  C   UNL     1     -43.286  41.127  28.016  1.00  0.00    -0.000 C 
ATOM     43  C   UNL     1     -44.201  40.907  26.151  1.00  0.00    -0.000 C 
ATOM     44  C   UNL     1     -43.869  42.132  27.015  1.00  0.00    -0.028 C 
ATOM     45  H   UNL     1     -42.197  41.013  27.938  1.00  0.00     0.043 H 
ATOM     46  H   UNL     1     -43.529  41.317  29.066  1.00  0.00     0.043 H 
ATOM     47  H   UNL     1     -43.460  40.713  25.366  1.00  0.00     0.043 H 
ATOM     48  H   UNL     1     -45.193  40.913  25.686  1.00  0.00     0.043 H 
ATOM     49  H   UNL     1     -43.161  42.845  26.583  1.00  0.00     0.029 H 
ATOM     50  H   UNL     1     -44.747  42.676  27.382  1.00  0.00     0.029 H 
ENDBRANCH  38  41
ENDBRANCH   6  38
TORSDOF 5
ENDMDL
MODEL 6
REMARK VINA RESULT:      -9.4      1.844      2.508
REMARK SMILES O=C(NCc1ccc2cc(CN3CCC3)[nH]c2c1)c1cc(=O)n2ccccc2n1
REMARK SMILES IDX 5 1 6 2 7 3 8 4 9 5 10 6 16 7 17 8 18 9 4 15 3 18 1 19 2 20
REMARK SMILES IDX 19 22 20 23 29 24 21 25 28 27 22 28 23 29 27 30 24 31 26 32
REMARK SMILES IDX 25 34 11 38 12 41 13 42 15 43 14 44
REMARK H PARENT 6 10 7 11 9 12 16 13 18 14 4 16 4 17 3 21 20 26 27 33 24 35
REMARK H PARENT 26 36 25 37 11 39 11 40 13 45 13 46 15 47 15 48 14 49 14 50
REMARK Flexibility Score: inf
ROOT
ATOM      1  C   UNL     1     -47.566  35.435  27.222  1.00  0.00    -0.027 A 
ATOM      2  C   UNL     1     -46.295  35.171  26.694  1.00  0.00    -0.057 A 
ATOM      3  C   UNL     1     -46.083  34.093  25.824  1.00  0.00    -0.052 A 
ATOM      4  C   UNL     1     -47.164  33.260  25.482  1.00  0.00    -0.000 A 
ATOM      5  C   UNL     1     -47.306  32.113  24.655  1.00  0.00    -0.032 A 
ATOM      6  C   UNL     1     -48.627  31.708  24.701  1.00  0.00     0.030 A 
ATOM      7  N   UNL     1     -49.284  32.580  25.535  1.00  0.00    -0.357 N 
ATOM      8  C   UNL     1     -48.418  33.532  26.023  1.00  0.00     0.046 A 
ATOM      9  C   UNL     1     -48.649  34.603  26.895  1.00  0.00    -0.033 A 
ATOM     10  H   UNL     1     -45.451  35.805  26.956  1.00  0.00     0.063 H 
ATOM     11  H   UNL     1     -45.094  33.904  25.417  1.00  0.00     0.063 H 
ATOM     12  H   UNL     1     -46.527  31.634  24.074  1.00  0.00     0.065 H 
ATOM     13  H   UNL     1     -50.269  32.544  25.757  1.00  0.00     0.166 HD
ATOM     14  H   UNL     1     -49.637  34.785  27.309  1.00  0.00     0.065 H 
ENDROOT
BRANCH   1  15
ATOM     15  C   UNL     1     -47.765  36.580  28.181  1.00  0.00     0.043 C 
ATOM     16  H   UNL     1     -47.829  36.216  29.213  1.00  0.00     0.054 H 
ATOM     17  H   UNL     1     -48.705  37.106  27.974  1.00  0.00     0.054 H 
BRANCH  15  18
ATOM     18  N   UNL     1     -46.686  37.526  28.077  1.00  0.00    -0.347 N 
ATOM     19  O   UNL     1     -45.724  37.014  30.098  1.00  0.00    -0.268 OA
ATOM     20  C   UNL     1     -45.769  37.698  29.082  1.00  0.00     0.270 C 
ATOM     21  H   UNL     1     -46.677  38.207  27.324  1.00  0.00     0.164 HD
BRANCH  20  22
ATOM     22  C   UNL     1     -44.819  38.838  28.808  1.00  0.00     0.136 A 
ATOM     23  C   UNL     1     -43.904  39.089  29.746  1.00  0.00     0.035 A 
ATOM     24  N   UNL     1     -44.951  39.540  27.632  1.00  0.00    -0.225 NA
ATOM     25  C   UNL     1     -42.959  40.190  29.519  1.00  0.00     0.258 A 
ATOM     26  H   UNL     1     -43.810  38.530  30.668  1.00  0.00     0.071 H 
ATOM     27  C   UNL     1     -44.115  40.514  27.435  1.00  0.00     0.140 A 
ATOM     28  O   UNL     1     -42.110  40.428  30.377  1.00  0.00    -0.269 OA
ATOM     29  N   UNL     1     -43.113  40.882  28.327  1.00  0.00    -0.268 N 
ATOM     30  C   UNL     1     -44.221  41.302  26.175  1.00  0.00    -0.019 A 
ATOM     31  C   UNL     1     -42.255  41.940  28.042  1.00  0.00     0.014 A 
ATOM     32  C   UNL     1     -43.372  42.311  25.945  1.00  0.00    -0.057 A 
ATOM     33  H   UNL     1     -44.997  41.023  25.474  1.00  0.00     0.066 H 
ATOM     34  C   UNL     1     -42.356  42.643  26.908  1.00  0.00    -0.045 A 
ATOM     35  H   UNL     1     -41.495  42.173  28.783  1.00  0.00     0.082 H 
ATOM     36  H   UNL     1     -43.433  42.896  25.033  1.00  0.00     0.062 H 
ATOM     37  H   UNL     1     -41.682  43.466  26.695  1.00  0.00     0.064 H 
ENDBRANCH  20  22
ENDBRANCH  15  18
ENDBRANCH   1  15
BRANCH   6  38
ATOM     38  C   UNL     1     -49.322  30.565  24.035  1.00  0.00     0.038 C 
ATOM     39  H   UNL     1     -48.568  29.791  23.841  1.00  0.00     0.050 H 
ATOM     40  H   UNL     1     -50.059  30.118  24.714  1.00  0.00     0.050 H 
BRANCH  38  41
ATOM     41  N   UNL     1     -49.907  30.989  22.757  1.00  0.00    -0.298 NA
ATOM     42  C   UNL     1     -50.870  29.990  22.239  1.00  0.00    -0.000 C 
ATOM     43  C   UNL     1     -48.991  30.676  21.637  1.00  0.00    -0.000 C 
ATOM     44  C   UNL     1     -49.751  29.365  21.395  1.00  0.00    -0.028 C 
ATOM     45  H   UNL     1     -51.668  30.445  21.638  1.00  0.00     0.043 H 
ATOM     46  H   UNL     1     -51.338  29.320  22.967  1.00  0.00     0.043 H 
ATOM     47  H   UNL     1     -49.076  31.389  20.807  1.00  0.00     0.043 H 
ATOM     48  H   UNL     1     -47.929  30.568  21.882  1.00  0.00     0.043 H 
ATOM     49  H   UNL     1     -50.003  29.142  20.354  1.00  0.00     0.029 H 
ATOM     50  H   UNL     1     -49.284  28.483  21.848  1.00  0.00     0.029 H 
ENDBRANCH  38  41
ENDBRANCH   6  38
TORSDOF 5
ENDMDL
MODEL 7
REMARK VINA RESULT:      -9.2      2.152      3.643
REMARK SMILES O=C(NCc1ccc2cc(CN3CCC3)[nH]c2c1)c1cc(=O)n2ccccc2n1
REMARK SMILES IDX 5 1 6 2 7 3 8 4 9 5 10 6 16 7 17 8 18 9 4 15 3 18 1 19 2 20
REMARK SMILES IDX 19 22 20 23 29 24 21 25 28 27 22 28 23 29 27 30 24 31 26 32
REMARK SMILES IDX 25 34 11 38 12 41 13 42 15 43 14 44
REMARK H PARENT 6 10 7 11 9 12 16 13 18 14 4 16 4 17 3 21 20 26 27 33 24 35
REMARK H PARENT 26 36 25 37 11 39 11 40 13 45 13 46 15 47 15 48 14 49 14 50
REMARK Flexibility Score: inf
ROOT
ATOM      1  C   UNL     1     -46.772  36.925  28.364  1.00  0.00    -0.027 A 
ATOM      2  C   UNL     1     -45.527  36.284  28.324  1.00  0.00    -0.057 A 
ATOM      3  C   UNL     1     -45.375  35.036  27.705  1.00  0.00    -0.052 A 
ATOM      4  C   UNL     1     -46.495  34.415  27.122  1.00  0.00    -0.000 A 
ATOM      5  C   UNL     1     -46.700  33.189  26.434  1.00  0.00    -0.032 A 
ATOM      6  C   UNL     1     -48.035  33.107  26.085  1.00  0.00     0.030 A 
ATOM      7  N   UNL     1     -48.640  34.251  26.545  1.00  0.00    -0.357 N 
ATOM      8  C   UNL     1     -47.727  35.062  27.180  1.00  0.00     0.046 A 
ATOM      9  C   UNL     1     -47.898  36.309  27.795  1.00  0.00    -0.033 A 
ATOM     10  H   UNL     1     -44.655  36.752  28.776  1.00  0.00     0.063 H 
ATOM     11  H   UNL     1     -44.403  34.554  27.675  1.00  0.00     0.063 H 
ATOM     12  H   UNL     1     -45.949  32.442  26.206  1.00  0.00     0.065 H 
ATOM     13  H   UNL     1     -49.617  34.481  26.429  1.00  0.00     0.166 HD
ATOM     14  H   UNL     1     -48.873  36.786  27.832  1.00  0.00     0.065 H 
ENDROOT
BRANCH   1  15
ATOM     15  C   UNL     1     -46.919  38.252  29.063  1.00  0.00     0.043 C 
ATOM     16  H   UNL     1     -46.740  38.147  30.139  1.00  0.00     0.054 H 
ATOM     17  H   UNL     1     -47.937  38.644  28.949  1.00  0.00     0.054 H 
BRANCH  15  18
ATOM     18  N   UNL     1     -46.001  39.218  28.521  1.00  0.00    -0.347 N 
ATOM     19  O   UNL     1     -47.240  39.700  26.649  1.00  0.00    -0.268 OA
ATOM     20  C   UNL     1     -46.221  39.835  27.316  1.00  0.00     0.270 C 
ATOM     21  H   UNL     1     -45.084  39.340  28.939  1.00  0.00     0.164 HD
BRANCH  20  22
ATOM     22  C   UNL     1     -45.059  40.699  26.889  1.00  0.00     0.136 A 
ATOM     23  C   UNL     1     -44.008  40.732  27.711  1.00  0.00     0.035 A 
ATOM     24  N   UNL     1     -45.150  41.391  25.703  1.00  0.00    -0.225 NA
ATOM     25  C   UNL     1     -42.856  41.560  27.334  1.00  0.00     0.258 A 
ATOM     26  H   UNL     1     -43.949  40.183  28.643  1.00  0.00     0.071 H 
ATOM     27  C   UNL     1     -44.130  42.123  25.373  1.00  0.00     0.140 A 
ATOM     28  O   UNL     1     -41.881  41.595  28.084  1.00  0.00    -0.269 OA
ATOM     29  N   UNL     1     -42.973  42.247  26.134  1.00  0.00    -0.268 N 
ATOM     30  C   UNL     1     -44.185  42.890  24.097  1.00  0.00    -0.019 A 
ATOM     31  C   UNL     1     -41.921  43.053  25.711  1.00  0.00     0.014 A 
ATOM     32  C   UNL     1     -43.147  43.652  23.731  1.00  0.00    -0.057 A 
ATOM     33  H   UNL     1     -45.082  42.800  23.497  1.00  0.00     0.066 H 
ATOM     34  C   UNL     1     -41.977  43.740  24.563  1.00  0.00    -0.045 A 
ATOM     35  H   UNL     1     -41.047  43.104  26.355  1.00  0.00     0.082 H 
ATOM     36  H   UNL     1     -43.168  44.219  22.806  1.00  0.00     0.062 H 
ATOM     37  H   UNL     1     -41.151  44.366  24.242  1.00  0.00     0.064 H 
ENDBRANCH  20  22
ENDBRANCH  15  18
ENDBRANCH   1  15
BRANCH   6  38
ATOM     38  C   UNL     1     -48.792  32.040  25.363  1.00  0.00     0.038 C 
ATOM     39  H   UNL     1     -48.661  31.106  25.926  1.00  0.00     0.050 H 
ATOM     40  H   UNL     1     -49.868  32.261  25.374  1.00  0.00     0.050 H 
BRANCH  38  41
ATOM     41  N   UNL     1     -48.261  31.855  24.007  1.00  0.00    -0.298 NA
ATOM     42  C   UNL     1     -49.218  31.130  23.139  1.00  0.00    -0.000 C 
ATOM     43  C   UNL     1     -47.348  30.692  23.960  1.00  0.00    -0.000 C 
ATOM     44  C   UNL     1     -48.510  29.812  23.478  1.00  0.00    -0.028 C 
ATOM     45  H   UNL     1     -49.129  31.414  22.083  1.00  0.00     0.043 H 
ATOM     46  H   UNL     1     -50.277  31.177  23.412  1.00  0.00     0.043 H 
ATOM     47  H   UNL     1     -46.551  30.807  23.215  1.00  0.00     0.043 H 
ATOM     48  H   UNL     1     -46.886  30.387  24.905  1.00  0.00     0.043 H 
ATOM     49  H   UNL     1     -48.293  29.152  22.634  1.00  0.00     0.029 H 
ATOM     50  H   UNL     1     -48.994  29.232  24.272  1.00  0.00     0.029 H 
ENDBRANCH  38  41
ENDBRANCH   6  38
TORSDOF 5
ENDMDL
