MODEL 1
REMARK VINA RESULT:      -9.5      0.000      0.000
REMARK SMILES CNc1ccc2ccc(OCc3cncc(-n4cc(-c5ccc(CNCCS(C)(=O)=O)o5)c5c(N)ncnc54)c3)cc2n1.O=C(O)C(F)(F)F
REMARK SMILES IDX 17 1 18 2 19 3 33 4 34 5 36 6 37 7 38 8 39 9 16 12 12 13
REMARK SMILES IDX 13 14 40 15 14 16 15 19 11 21 10 24 9 25 3 26 4 27 43 28
REMARK SMILES IDX 5 29 42 31 6 32 41 34 7 35 8 37 2 40 1 42 20 46 21 47 32 48
REMARK SMILES IDX 22 49 23 51 24 53 25 56 26 58 27 61 28 64 30 65 31 66 29 67
REMARK SMILES IDX 35 71
REMARK H PARENT 18 10 37 11 13 17 40 18 15 20 11 22 11 23 4 30 5 33 41 36 7 38
REMARK H PARENT 8 39 2 41 1 43 1 44 1 45 21 50 22 52 24 54 24 55 25 57 26 59
REMARK H PARENT 26 60 27 62 27 63 29 68 29 69 29 70 35 72 35 73
REMARK Flexibility Score: inf
ROOT
ATOM      1  N   UNL     1     -47.714  32.412  25.314  1.00  0.00    -0.299 N 
ATOM      2  C   UNL     1     -48.923  31.745  25.315  1.00  0.00     0.023 A 
ATOM      3  C   UNL     1     -49.037  30.988  24.168  1.00  0.00     0.049 A 
ATOM      4  C   UNL     1     -47.816  31.101  23.454  1.00  0.00     0.072 A 
ATOM      5  C   UNL     1     -47.228  30.546  22.304  1.00  0.00     0.137 A 
ATOM      6  N   UNL     1     -46.029  30.993  21.888  1.00  0.00    -0.219 NA
ATOM      7  C   UNL     1     -45.410  31.930  22.616  1.00  0.00     0.120 A 
ATOM      8  N   UNL     1     -45.826  32.474  23.761  1.00  0.00    -0.218 NA
ATOM      9  C   UNL     1     -47.035  32.024  24.157  1.00  0.00     0.150 A 
ATOM     10  H   UNL     1     -49.644  31.865  26.112  1.00  0.00     0.083 H 
ATOM     11  H   UNL     1     -44.453  32.278  22.239  1.00  0.00     0.106 H 
ENDROOT
BRANCH   1  12
ATOM     12  C   UNL     1     -47.281  33.332  26.322  1.00  0.00     0.066 A 
ATOM     13  C   UNL     1     -47.344  35.502  27.416  1.00  0.00     0.010 A 
ATOM     14  C   UNL     1     -46.448  35.000  28.349  1.00  0.00     0.034 A 
ATOM     15  C   UNL     1     -47.747  34.649  26.379  1.00  0.00    -0.028 A 
ATOM     16  N   UNL     1     -45.947  33.746  28.311  1.00  0.00    -0.262 NA
ATOM     17  H   UNL     1     -46.098  35.609  29.180  1.00  0.00     0.084 H 
ATOM     18  H   UNL     1     -48.422  35.047  25.631  1.00  0.00     0.065 H 
ATOM     19  C   UNL     1     -46.379  32.943  27.307  1.00  0.00     0.051 A 
ATOM     20  H   UNL     1     -45.964  31.943  27.370  1.00  0.00     0.086 H 
BRANCH  13  21
ATOM     21  C   UNL     1     -47.852  36.914  27.510  1.00  0.00     0.115 C 
ATOM     22  H   UNL     1     -47.923  37.278  28.543  1.00  0.00     0.076 H 
ATOM     23  H   UNL     1     -48.880  36.926  27.128  1.00  0.00     0.076 H 
BRANCH  21  24
ATOM     24  O   UNL     1     -47.098  37.812  26.691  1.00  0.00    -0.489 OA
BRANCH  24  25
ATOM     25  C   UNL     1     -46.062  38.506  27.253  1.00  0.00     0.122 A 
ATOM     26  C   UNL     1     -42.550  41.720  27.289  1.00  0.00     0.126 A 
ATOM     27  C   UNL     1     -42.238  41.438  28.613  1.00  0.00    -0.019 A 
ATOM     28  N   UNL     1     -43.531  41.061  26.639  1.00  0.00    -0.231 NA
ATOM     29  C   UNL     1     -42.975  40.477  29.300  1.00  0.00    -0.049 A 
ATOM     30  H   UNL     1     -41.424  41.955  29.109  1.00  0.00     0.066 H 
ATOM     31  C   UNL     1     -44.249  40.133  27.297  1.00  0.00     0.076 A 
ATOM     32  C   UNL     1     -44.009  39.806  28.644  1.00  0.00     0.001 A 
ATOM     33  H   UNL     1     -42.735  40.259  30.337  1.00  0.00     0.063 H 
ATOM     34  C   UNL     1     -45.272  39.472  26.625  1.00  0.00     0.007 A 
ATOM     35  C   UNL     1     -44.794  38.837  29.286  1.00  0.00    -0.049 A 
ATOM     36  H   UNL     1     -45.427  39.754  25.592  1.00  0.00     0.069 H 
ATOM     37  C   UNL     1     -45.817  38.196  28.590  1.00  0.00    -0.019 A 
ATOM     38  H   UNL     1     -44.617  38.579  30.327  1.00  0.00     0.063 H 
ATOM     39  H   UNL     1     -46.427  37.449  29.094  1.00  0.00     0.066 H 
BRANCH  26  40
ATOM     40  N   UNL     1     -41.777  42.690  26.621  1.00  0.00    -0.373 N 
ATOM     41  H   UNL     1     -41.416  43.347  27.307  1.00  0.00     0.161 HD
BRANCH  40  42
ATOM     42  C   UNL     1     -42.481  43.372  25.547  1.00  0.00     0.005 C 
ATOM     43  H   UNL     1     -41.853  43.473  24.655  1.00  0.00     0.045 H 
ATOM     44  H   UNL     1     -42.739  44.383  25.878  1.00  0.00     0.045 H 
ATOM     45  H   UNL     1     -43.414  42.861  25.286  1.00  0.00     0.045 H 
ENDBRANCH  40  42
ENDBRANCH  26  40
ENDBRANCH  24  25
ENDBRANCH  21  24
ENDBRANCH  13  21
ENDBRANCH   1  12
BRANCH   3  46
ATOM     46  C   UNL     1     -50.366  30.228  23.865  1.00  0.00     0.136 A 
ATOM     47  C   UNL     1     -51.481  30.674  23.187  1.00  0.00    -0.015 A 
ATOM     48  O   UNL     1     -50.601  28.955  24.318  1.00  0.00    -0.460 OA
ATOM     49  C   UNL     1     -52.424  29.615  23.193  1.00  0.00    -0.019 A 
ATOM     50  H   UNL     1     -51.642  31.656  22.771  1.00  0.00     0.066 H 
ATOM     51  C   UNL     1     -51.841  28.584  23.892  1.00  0.00     0.118 A 
ATOM     52  H   UNL     1     -53.420  29.609  22.768  1.00  0.00     0.066 H 
BRANCH  51  53
ATOM     53  C   UNL     1     -52.301  27.224  24.273  1.00  0.00     0.054 C 
ATOM     54  H   UNL     1     -52.152  26.535  23.432  1.00  0.00     0.051 H 
ATOM     55  H   UNL     1     -53.376  27.268  24.481  1.00  0.00     0.051 H 
BRANCH  53  56
ATOM     56  N   UNL     1     -51.555  26.764  25.449  1.00  0.00    -0.309 NA
ATOM     57  H   UNL     1     -51.272  27.596  25.971  1.00  0.00     0.123 HD
BRANCH  56  58
ATOM     58  C   UNL     1     -50.379  25.968  25.113  1.00  0.00     0.010 C 
ATOM     59  H   UNL     1     -49.856  26.487  24.302  1.00  0.00     0.044 H 
ATOM     60  H   UNL     1     -50.699  25.008  24.687  1.00  0.00     0.044 H 
BRANCH  58  61
ATOM     61  C   UNL     1     -49.386  25.699  26.236  1.00  0.00     0.062 C 
ATOM     62  H   UNL     1     -49.877  25.685  27.215  1.00  0.00     0.045 H 
ATOM     63  H   UNL     1     -48.947  24.706  26.082  1.00  0.00     0.045 H 
BRANCH  61  64
ATOM     64  S   UNL     1     -48.018  26.836  26.360  1.00  0.00     0.148 S 
ATOM     65  O   UNL     1     -48.279  27.675  27.518  1.00  0.00    -0.229 OA
ATOM     66  O   UNL     1     -47.803  27.450  25.062  1.00  0.00    -0.229 OA
BRANCH  64  67
ATOM     67  C   UNL     1     -46.585  25.856  26.752  1.00  0.00     0.039 C 
ATOM     68  H   UNL     1     -46.447  25.105  25.973  1.00  0.00     0.040 H 
ATOM     69  H   UNL     1     -46.770  25.364  27.710  1.00  0.00     0.040 H 
ATOM     70  H   UNL     1     -45.710  26.499  26.840  1.00  0.00     0.040 H 
ENDBRANCH  64  67
ENDBRANCH  61  64
ENDBRANCH  58  61
ENDBRANCH  56  58
ENDBRANCH  53  56
ENDBRANCH  51  53
ENDBRANCH   3  46
BRANCH   5  71
ATOM     71  N   UNL     1     -47.754  29.490  21.567  1.00  0.00    -0.383 N 
ATOM     72  H   UNL     1     -47.166  29.341  20.752  1.00  0.00     0.158 HD
ATOM     73  H   UNL     1     -47.889  28.658  22.130  1.00  0.00     0.158 HD
ENDBRANCH   5  71
TORSDOF 14
ENDMDL
MODEL 2
REMARK VINA RESULT:      -9.2      4.087     12.644
REMARK SMILES CNc1ccc2ccc(OCc3cncc(-n4cc(-c5ccc(CNCCS(C)(=O)=O)o5)c5c(N)ncnc54)c3)cc2n1.O=C(O)C(F)(F)F
REMARK SMILES IDX 17 1 18 2 19 3 33 4 34 5 36 6 37 7 38 8 39 9 16 12 12 13
REMARK SMILES IDX 13 14 40 15 14 16 15 19 11 21 10 24 9 25 3 26 4 27 43 28
REMARK SMILES IDX 5 29 42 31 6 32 41 34 7 35 8 37 2 40 1 42 20 46 21 47 32 48
REMARK SMILES IDX 22 49 23 51 24 53 25 56 26 58 27 61 28 64 30 65 31 66 29 67
REMARK SMILES IDX 35 71
REMARK H PARENT 18 10 37 11 13 17 40 18 15 20 11 22 11 23 4 30 5 33 41 36 7 38
REMARK H PARENT 8 39 2 41 1 43 1 44 1 45 21 50 22 52 24 54 24 55 25 57 26 59
REMARK H PARENT 26 60 27 62 27 63 29 68 29 69 29 70 35 72 35 73
REMARK Flexibility Score: inf
ROOT
ATOM      1  N   UNL     1     -46.916  36.759  27.421  1.00  0.00    -0.299 N 
ATOM      2  C   UNL     1     -45.900  37.684  27.281  1.00  0.00     0.023 A 
ATOM      3  C   UNL     1     -46.408  38.957  27.431  1.00  0.00     0.049 A 
ATOM      4  C   UNL     1     -47.779  38.837  27.774  1.00  0.00     0.072 A 
ATOM      5  C   UNL     1     -48.837  39.685  28.148  1.00  0.00     0.137 A 
ATOM      6  N   UNL     1     -50.071  39.175  28.318  1.00  0.00    -0.219 NA
ATOM      7  C   UNL     1     -50.242  37.856  28.166  1.00  0.00     0.120 A 
ATOM      8  N   UNL     1     -49.308  36.943  27.892  1.00  0.00    -0.218 NA
ATOM      9  C   UNL     1     -48.080  37.472  27.714  1.00  0.00     0.150 A 
ATOM     10  H   UNL     1     -44.884  37.390  27.057  1.00  0.00     0.083 H 
ATOM     11  H   UNL     1     -51.254  37.485  28.293  1.00  0.00     0.106 H 
ENDROOT
BRANCH   1  12
ATOM     12  C   UNL     1     -46.765  35.343  27.273  1.00  0.00     0.066 A 
ATOM     13  C   UNL     1     -46.815  33.307  25.946  1.00  0.00     0.010 A 
ATOM     14  C   UNL     1     -46.367  32.625  27.068  1.00  0.00     0.034 A 
ATOM     15  C   UNL     1     -47.031  34.687  26.068  1.00  0.00    -0.028 A 
ATOM     16  N   UNL     1     -46.131  33.214  28.261  1.00  0.00    -0.262 NA
ATOM     17  H   UNL     1     -46.177  31.554  27.040  1.00  0.00     0.084 H 
ATOM     18  H   UNL     1     -47.412  35.217  25.203  1.00  0.00     0.065 H 
ATOM     19  C   UNL     1     -46.327  34.554  28.333  1.00  0.00     0.051 A 
ATOM     20  H   UNL     1     -46.077  34.957  29.309  1.00  0.00     0.086 H 
BRANCH  13  21
ATOM     21  C   UNL     1     -47.073  32.585  24.652  1.00  0.00     0.115 C 
ATOM     22  H   UNL     1     -46.469  31.676  24.539  1.00  0.00     0.076 H 
ATOM     23  H   UNL     1     -46.758  33.245  23.834  1.00  0.00     0.076 H 
BRANCH  21  24
ATOM     24  O   UNL     1     -48.463  32.317  24.453  1.00  0.00    -0.489 OA
BRANCH  24  25
ATOM     25  C   UNL     1     -48.892  31.018  24.452  1.00  0.00     0.122 A 
ATOM     26  C   UNL     1     -49.098  26.550  26.083  1.00  0.00     0.126 A 
ATOM     27  C   UNL     1     -50.014  26.183  25.104  1.00  0.00    -0.019 A 
ATOM     28  N   UNL     1     -48.591  27.798  26.141  1.00  0.00    -0.231 NA
ATOM     29  C   UNL     1     -50.448  27.131  24.182  1.00  0.00    -0.049 A 
ATOM     30  H   UNL     1     -50.385  25.166  25.053  1.00  0.00     0.066 H 
ATOM     31  C   UNL     1     -49.007  28.721  25.255  1.00  0.00     0.076 A 
ATOM     32  C   UNL     1     -49.948  28.433  24.250  1.00  0.00     0.001 A 
ATOM     33  H   UNL     1     -51.168  26.847  23.421  1.00  0.00     0.063 H 
ATOM     34  C   UNL     1     -48.493  30.011  25.334  1.00  0.00     0.007 A 
ATOM     35  C   UNL     1     -50.355  29.435  23.356  1.00  0.00    -0.049 A 
ATOM     36  H   UNL     1     -47.775  30.193  26.123  1.00  0.00     0.069 H 
ATOM     37  C   UNL     1     -49.829  30.721  23.464  1.00  0.00    -0.019 A 
ATOM     38  H   UNL     1     -51.083  29.222  22.577  1.00  0.00     0.063 H 
ATOM     39  H   UNL     1     -50.152  31.496  22.772  1.00  0.00     0.066 H 
BRANCH  26  40
ATOM     40  N   UNL     1     -48.672  25.563  26.992  1.00  0.00    -0.373 N 
ATOM     41  H   UNL     1     -48.633  25.971  27.921  1.00  0.00     0.161 HD
BRANCH  40  42
ATOM     42  C   UNL     1     -47.413  24.930  26.633  1.00  0.00     0.005 C 
ATOM     43  H   UNL     1     -47.570  23.935  26.202  1.00  0.00     0.045 H 
ATOM     44  H   UNL     1     -46.811  24.801  27.538  1.00  0.00     0.045 H 
ATOM     45  H   UNL     1     -46.834  25.547  25.937  1.00  0.00     0.045 H 
ENDBRANCH  40  42
ENDBRANCH  26  40
ENDBRANCH  24  25
ENDBRANCH  21  24
ENDBRANCH  13  21
ENDBRANCH   1  12
BRANCH   3  46
ATOM     46  C   UNL     1     -45.487  40.195  27.198  1.00  0.00     0.136 A 
ATOM     47  C   UNL     1     -44.163  40.366  27.545  1.00  0.00    -0.015 A 
ATOM     48  O   UNL     1     -45.948  41.352  26.623  1.00  0.00    -0.460 OA
ATOM     49  C   UNL     1     -43.787  41.668  27.131  1.00  0.00    -0.019 A 
ATOM     50  H   UNL     1     -43.534  39.671  28.078  1.00  0.00     0.066 H 
ATOM     51  C   UNL     1     -44.909  42.232  26.569  1.00  0.00     0.118 A 
ATOM     52  H   UNL     1     -42.827  42.153  27.251  1.00  0.00     0.066 H 
BRANCH  51  53
ATOM     53  C   UNL     1     -45.189  43.563  25.973  1.00  0.00     0.054 C 
ATOM     54  H   UNL     1     -44.544  43.720  25.099  1.00  0.00     0.051 H 
ATOM     55  H   UNL     1     -44.940  44.333  26.711  1.00  0.00     0.051 H 
BRANCH  53  56
ATOM     56  N   UNL     1     -46.601  43.641  25.584  1.00  0.00    -0.309 NA
ATOM     57  H   UNL     1     -46.627  43.852  24.584  1.00  0.00     0.123 HD
BRANCH  56  58
ATOM     58  C   UNL     1     -47.350  44.652  26.323  1.00  0.00     0.010 C 
ATOM     59  H   UNL     1     -47.479  45.513  25.656  1.00  0.00     0.044 H 
ATOM     60  H   UNL     1     -46.741  45.017  27.159  1.00  0.00     0.044 H 
BRANCH  58  61
ATOM     61  C   UNL     1     -48.717  44.244  26.855  1.00  0.00     0.062 C 
ATOM     62  H   UNL     1     -48.634  43.516  27.669  1.00  0.00     0.045 H 
ATOM     63  H   UNL     1     -49.210  45.132  27.266  1.00  0.00     0.045 H 
BRANCH  61  64
ATOM     64  S   UNL     1     -49.849  43.555  25.660  1.00  0.00     0.148 S 
ATOM     65  O   UNL     1     -49.948  42.135  25.954  1.00  0.00    -0.229 OA
ATOM     66  O   UNL     1     -49.446  43.987  24.334  1.00  0.00    -0.229 OA
BRANCH  64  67
ATOM     67  C   UNL     1     -51.443  44.263  26.012  1.00  0.00     0.039 C 
ATOM     68  H   UNL     1     -52.004  44.350  25.081  1.00  0.00     0.040 H 
ATOM     69  H   UNL     1     -51.280  45.256  26.438  1.00  0.00     0.040 H 
ATOM     70  H   UNL     1     -51.971  43.643  26.736  1.00  0.00     0.040 H 
ENDBRANCH  64  67
ENDBRANCH  61  64
ENDBRANCH  58  61
ENDBRANCH  56  58
ENDBRANCH  53  56
ENDBRANCH  51  53
ENDBRANCH   3  46
BRANCH   5  71
ATOM     71  N   UNL     1     -48.711  41.039  28.439  1.00  0.00    -0.383 N 
ATOM     72  H   UNL     1     -49.148  41.572  27.692  1.00  0.00     0.158 HD
ATOM     73  H   UNL     1     -49.061  41.268  29.362  1.00  0.00     0.158 HD
ENDBRANCH   5  71
TORSDOF 14
ENDMDL
MODEL 3
REMARK VINA RESULT:      -9.1      3.741     12.716
REMARK SMILES CNc1ccc2ccc(OCc3cncc(-n4cc(-c5ccc(CNCCS(C)(=O)=O)o5)c5c(N)ncnc54)c3)cc2n1.O=C(O)C(F)(F)F
REMARK SMILES IDX 17 1 18 2 19 3 33 4 34 5 36 6 37 7 38 8 39 9 16 12 12 13
REMARK SMILES IDX 13 14 40 15 14 16 15 19 11 21 10 24 9 25 3 26 4 27 43 28
REMARK SMILES IDX 5 29 42 31 6 32 41 34 7 35 8 37 2 40 1 42 20 46 21 47 32 48
REMARK SMILES IDX 22 49 23 51 24 53 25 56 26 58 27 61 28 64 30 65 31 66 29 67
REMARK SMILES IDX 35 71
REMARK H PARENT 18 10 37 11 13 17 40 18 15 20 11 22 11 23 4 30 5 33 41 36 7 38
REMARK H PARENT 8 39 2 41 1 43 1 44 1 45 21 50 22 52 24 54 24 55 25 57 26 59
REMARK H PARENT 26 60 27 62 27 63 29 68 29 69 29 70 35 72 35 73
REMARK Flexibility Score: inf
ROOT
ATOM      1  N   UNL     1     -46.480  37.237  27.410  1.00  0.00    -0.299 N 
ATOM      2  C   UNL     1     -46.138  38.293  26.590  1.00  0.00     0.023 A 
ATOM      3  C   UNL     1     -45.355  39.188  27.288  1.00  0.00     0.049 A 
ATOM      4  C   UNL     1     -45.109  38.637  28.572  1.00  0.00     0.072 A 
ATOM      5  C   UNL     1     -44.346  38.949  29.711  1.00  0.00     0.137 A 
ATOM      6  N   UNL     1     -44.449  38.183  30.812  1.00  0.00    -0.219 NA
ATOM      7  C   UNL     1     -45.251  37.111  30.771  1.00  0.00     0.120 A 
ATOM      8  N   UNL     1     -45.960  36.669  29.731  1.00  0.00    -0.218 NA
ATOM      9  C   UNL     1     -45.854  37.455  28.639  1.00  0.00     0.150 A 
ATOM     10  H   UNL     1     -46.490  38.365  25.571  1.00  0.00     0.083 H 
ATOM     11  H   UNL     1     -45.321  36.529  31.684  1.00  0.00     0.106 H 
ENDROOT
BRANCH   1  12
ATOM     12  C   UNL     1     -47.331  36.147  27.037  1.00  0.00     0.066 A 
ATOM     13  C   UNL     1     -47.709  33.969  26.025  1.00  0.00     0.010 A 
ATOM     14  C   UNL     1     -49.031  34.065  26.437  1.00  0.00     0.034 A 
ATOM     15  C   UNL     1     -46.858  35.043  26.321  1.00  0.00    -0.028 A 
ATOM     16  N   UNL     1     -49.536  35.127  27.100  1.00  0.00    -0.262 NA
ATOM     17  H   UNL     1     -49.742  33.265  26.242  1.00  0.00     0.084 H 
ATOM     18  H   UNL     1     -45.833  34.987  25.973  1.00  0.00     0.065 H 
ATOM     19  C   UNL     1     -48.677  36.136  27.390  1.00  0.00     0.051 A 
ATOM     20  H   UNL     1     -49.148  36.931  27.957  1.00  0.00     0.086 H 
BRANCH  13  21
ATOM     21  C   UNL     1     -47.216  32.762  25.277  1.00  0.00     0.115 C 
ATOM     22  H   UNL     1     -46.963  31.921  25.936  1.00  0.00     0.076 H 
ATOM     23  H   UNL     1     -46.274  33.036  24.785  1.00  0.00     0.076 H 
BRANCH  21  24
ATOM     24  O   UNL     1     -48.120  32.363  24.244  1.00  0.00    -0.489 OA
BRANCH  24  25
ATOM     25  C   UNL     1     -48.751  31.154  24.348  1.00  0.00     0.122 A 
ATOM     26  C   UNL     1     -49.384  26.763  26.075  1.00  0.00     0.126 A 
ATOM     27  C   UNL     1     -50.517  26.566  25.295  1.00  0.00    -0.019 A 
ATOM     28  N   UNL     1     -48.675  27.908  26.013  1.00  0.00    -0.231 NA
ATOM     29  C   UNL     1     -50.954  27.585  24.453  1.00  0.00    -0.049 A 
ATOM     30  H   UNL     1     -51.055  25.625  25.334  1.00  0.00     0.066 H 
ATOM     31  C   UNL     1     -49.092  28.899  25.203  1.00  0.00     0.076 A 
ATOM     32  C   UNL     1     -50.240  28.784  24.399  1.00  0.00     0.001 A 
ATOM     33  H   UNL     1     -51.842  27.434  23.847  1.00  0.00     0.063 H 
ATOM     34  C   UNL     1     -48.365  30.084  25.159  1.00  0.00     0.007 A 
ATOM     35  C   UNL     1     -50.638  29.851  23.579  1.00  0.00    -0.049 A 
ATOM     36  H   UNL     1     -47.490  30.134  25.794  1.00  0.00     0.069 H 
ATOM     37  C   UNL     1     -49.895  31.030  23.561  1.00  0.00    -0.019 A 
ATOM     38  H   UNL     1     -51.525  29.772  22.956  1.00  0.00     0.063 H 
ATOM     39  H   UNL     1     -50.209  31.856  22.928  1.00  0.00     0.066 H 
BRANCH  26  40
ATOM     40  N   UNL     1     -48.964  25.707  26.907  1.00  0.00    -0.373 N 
ATOM     41  H   UNL     1     -48.890  26.052  27.859  1.00  0.00     0.161 HD
BRANCH  40  42
ATOM     42  C   UNL     1     -47.731  25.067  26.475  1.00  0.00     0.005 C 
ATOM     43  H   UNL     1     -47.677  24.993  25.383  1.00  0.00     0.045 H 
ATOM     44  H   UNL     1     -47.704  24.047  26.871  1.00  0.00     0.045 H 
ATOM     45  H   UNL     1     -46.848  25.593  26.854  1.00  0.00     0.045 H 
ENDBRANCH  40  42
ENDBRANCH  26  40
ENDBRANCH  24  25
ENDBRANCH  21  24
ENDBRANCH  13  21
ENDBRANCH   1  12
BRANCH   3  46
ATOM     46  C   UNL     1     -44.932  40.536  26.625  1.00  0.00     0.136 A 
ATOM     47  C   UNL     1     -44.683  40.805  25.295  1.00  0.00    -0.015 A 
ATOM     48  O   UNL     1     -44.698  41.671  27.358  1.00  0.00    -0.460 OA
ATOM     49  C   UNL     1     -44.318  42.171  25.206  1.00  0.00    -0.019 A 
ATOM     50  H   UNL     1     -44.706  40.106  24.473  1.00  0.00     0.066 H 
ATOM     51  C   UNL     1     -44.345  42.661  26.492  1.00  0.00     0.118 A 
ATOM     52  H   UNL     1     -44.039  42.729  24.321  1.00  0.00     0.066 H 
BRANCH  51  53
ATOM     53  C   UNL     1     -44.046  43.992  27.079  1.00  0.00     0.054 C 
ATOM     54  H   UNL     1     -43.314  44.517  26.452  1.00  0.00     0.051 H 
ATOM     55  H   UNL     1     -43.593  43.842  28.065  1.00  0.00     0.051 H 
BRANCH  53  56
ATOM     56  N   UNL     1     -45.284  44.773  27.182  1.00  0.00    -0.309 NA
ATOM     57  H   UNL     1     -45.591  44.724  28.156  1.00  0.00     0.123 HD
BRANCH  56  58
ATOM     58  C   UNL     1     -46.345  44.295  26.302  1.00  0.00     0.010 C 
ATOM     59  H   UNL     1     -46.123  43.248  26.065  1.00  0.00     0.044 H 
ATOM     60  H   UNL     1     -46.293  44.829  25.346  1.00  0.00     0.044 H 
BRANCH  58  61
ATOM     61  C   UNL     1     -47.769  44.379  26.834  1.00  0.00     0.062 C 
ATOM     62  H   UNL     1     -47.788  44.485  27.924  1.00  0.00     0.045 H 
ATOM     63  H   UNL     1     -48.245  45.273  26.415  1.00  0.00     0.045 H 
BRANCH  61  64
ATOM     64  S   UNL     1     -48.839  43.010  26.429  1.00  0.00     0.148 S 
ATOM     65  O   UNL     1     -48.003  41.820  26.417  1.00  0.00    -0.229 OA
ATOM     66  O   UNL     1     -49.611  43.355  25.250  1.00  0.00    -0.229 OA
BRANCH  64  67
ATOM     67  C   UNL     1     -49.964  42.830  27.795  1.00  0.00     0.039 C 
ATOM     68  H   UNL     1     -50.953  42.582  27.408  1.00  0.00     0.040 H 
ATOM     69  H   UNL     1     -50.004  43.787  28.322  1.00  0.00     0.040 H 
ATOM     70  H   UNL     1     -49.601  42.060  28.476  1.00  0.00     0.040 H 
ENDBRANCH  64  67
ENDBRANCH  61  64
ENDBRANCH  58  61
ENDBRANCH  56  58
ENDBRANCH  53  56
ENDBRANCH  51  53
ENDBRANCH   3  46
BRANCH   5  71
ATOM     71  N   UNL     1     -43.406  39.971  29.787  1.00  0.00    -0.383 N 
ATOM     72  H   UNL     1     -43.316  40.396  28.869  1.00  0.00     0.158 HD
ATOM     73  H   UNL     1     -43.617  40.634  30.524  1.00  0.00     0.158 HD
ENDBRANCH   5  71
TORSDOF 14
ENDMDL
MODEL 4
REMARK VINA RESULT:      -9.0      1.935      3.025
REMARK SMILES CNc1ccc2ccc(OCc3cncc(-n4cc(-c5ccc(CNCCS(C)(=O)=O)o5)c5c(N)ncnc54)c3)cc2n1.O=C(O)C(F)(F)F
REMARK SMILES IDX 17 1 18 2 19 3 33 4 34 5 36 6 37 7 38 8 39 9 16 12 12 13
REMARK SMILES IDX 13 14 40 15 14 16 15 19 11 21 10 24 9 25 3 26 4 27 43 28
REMARK SMILES IDX 5 29 42 31 6 32 41 34 7 35 8 37 2 40 1 42 20 46 21 47 32 48
REMARK SMILES IDX 22 49 23 51 24 53 25 56 26 58 27 61 28 64 30 65 31 66 29 67
REMARK SMILES IDX 35 71
REMARK H PARENT 18 10 37 11 13 17 40 18 15 20 11 22 11 23 4 30 5 33 41 36 7 38
REMARK H PARENT 8 39 2 41 1 43 1 44 1 45 21 50 22 52 24 54 24 55 25 57 26 59
REMARK H PARENT 26 60 27 62 27 63 29 68 29 69 29 70 35 72 35 73
REMARK Flexibility Score: inf
ROOT
ATOM      1  N   UNL     1     -48.029  32.389  25.678  1.00  0.00    -0.299 N 
ATOM      2  C   UNL     1     -48.637  31.230  26.118  1.00  0.00     0.023 A 
ATOM      3  C   UNL     1     -48.243  30.171  25.328  1.00  0.00     0.049 A 
ATOM      4  C   UNL     1     -47.276  30.655  24.409  1.00  0.00     0.072 A 
ATOM      5  C   UNL     1     -46.423  30.129  23.422  1.00  0.00     0.137 A 
ATOM      6  N   UNL     1     -45.678  30.962  22.673  1.00  0.00    -0.219 NA
ATOM      7  C   UNL     1     -45.743  32.276  22.925  1.00  0.00     0.120 A 
ATOM      8  N   UNL     1     -46.449  32.885  23.879  1.00  0.00    -0.218 NA
ATOM      9  C   UNL     1     -47.197  32.036  24.614  1.00  0.00     0.150 A 
ATOM     10  H   UNL     1     -49.332  31.226  26.945  1.00  0.00     0.083 H 
ATOM     11  H   UNL     1     -45.142  32.917  22.287  1.00  0.00     0.106 H 
ENDROOT
BRANCH   1  12
ATOM     12  C   UNL     1     -48.249  33.693  26.228  1.00  0.00     0.066 A 
ATOM     13  C   UNL     1     -47.489  35.920  26.838  1.00  0.00     0.010 A 
ATOM     14  C   UNL     1     -48.792  36.203  27.225  1.00  0.00     0.034 A 
ATOM     15  C   UNL     1     -47.222  34.634  26.349  1.00  0.00    -0.028 A 
ATOM     16  N   UNL     1     -49.805  35.312  27.157  1.00  0.00    -0.262 NA
ATOM     17  H   UNL     1     -49.066  37.182  27.611  1.00  0.00     0.084 H 
ATOM     18  H   UNL     1     -46.200  34.399  26.076  1.00  0.00     0.065 H 
ATOM     19  C   UNL     1     -49.513  34.087  26.655  1.00  0.00     0.051 A 
ATOM     20  H   UNL     1     -50.386  33.445  26.596  1.00  0.00     0.086 H 
BRANCH  13  21
ATOM     21  C   UNL     1     -46.404  36.955  26.954  1.00  0.00     0.115 C 
ATOM     22  H   UNL     1     -46.562  37.819  26.297  1.00  0.00     0.076 H 
ATOM     23  H   UNL     1     -45.469  36.497  26.610  1.00  0.00     0.076 H 
BRANCH  21  24
ATOM     24  O   UNL     1     -46.191  37.360  28.309  1.00  0.00    -0.489 OA
BRANCH  24  25
ATOM     25  C   UNL     1     -45.212  38.276  28.578  1.00  0.00     0.122 A 
ATOM     26  C   UNL     1     -42.549  42.121  27.688  1.00  0.00     0.126 A 
ATOM     27  C   UNL     1     -41.854  41.978  28.883  1.00  0.00    -0.019 A 
ATOM     28  N   UNL     1     -43.507  41.246  27.319  1.00  0.00    -0.231 NA
ATOM     29  C   UNL     1     -42.175  40.928  29.739  1.00  0.00    -0.049 A 
ATOM     30  H   UNL     1     -41.064  42.672  29.146  1.00  0.00     0.066 H 
ATOM     31  C   UNL     1     -43.824  40.230  28.143  1.00  0.00     0.076 A 
ATOM     32  C   UNL     1     -43.183  40.031  29.379  1.00  0.00     0.001 A 
ATOM     33  H   UNL     1     -41.636  40.818  30.676  1.00  0.00     0.063 H 
ATOM     34  C   UNL     1     -44.826  39.344  27.764  1.00  0.00     0.007 A 
ATOM     35  C   UNL     1     -43.558  38.961  30.205  1.00  0.00    -0.049 A 
ATOM     36  H   UNL     1     -45.298  39.533  26.808  1.00  0.00     0.069 H 
ATOM     37  C   UNL     1     -44.571  38.093  29.803  1.00  0.00    -0.019 A 
ATOM     38  H   UNL     1     -43.069  38.800  31.162  1.00  0.00     0.063 H 
ATOM     39  H   UNL     1     -44.863  37.268  30.449  1.00  0.00     0.066 H 
BRANCH  26  40
ATOM     40  N   UNL     1     -42.191  43.187  26.840  1.00  0.00    -0.373 N 
ATOM     41  H   UNL     1     -41.671  43.872  27.380  1.00  0.00     0.161 HD
BRANCH  40  42
ATOM     42  C   UNL     1     -43.315  43.796  26.146  1.00  0.00     0.005 C 
ATOM     43  H   UNL     1     -44.273  43.439  26.540  1.00  0.00     0.045 H 
ATOM     44  H   UNL     1     -43.273  43.516  25.090  1.00  0.00     0.045 H 
ATOM     45  H   UNL     1     -43.278  44.890  26.200  1.00  0.00     0.045 H 
ENDBRANCH  40  42
ENDBRANCH  26  40
ENDBRANCH  24  25
ENDBRANCH  21  24
ENDBRANCH  13  21
ENDBRANCH   1  12
BRANCH   3  46
ATOM     46  C   UNL     1     -48.880  28.763  25.538  1.00  0.00     0.136 A 
ATOM     47  C   UNL     1     -48.648  27.850  26.546  1.00  0.00    -0.015 A 
ATOM     48  O   UNL     1     -49.773  28.222  24.647  1.00  0.00    -0.460 OA
ATOM     49  C   UNL     1     -49.461  26.719  26.280  1.00  0.00    -0.019 A 
ATOM     50  H   UNL     1     -47.946  27.941  27.359  1.00  0.00     0.066 H 
ATOM     51  C   UNL     1     -50.133  26.994  25.112  1.00  0.00     0.118 A 
ATOM     52  H   UNL     1     -49.529  25.801  26.850  1.00  0.00     0.066 H 
BRANCH  51  53
ATOM     53  C   UNL     1     -51.106  26.226  24.293  1.00  0.00     0.054 C 
ATOM     54  H   UNL     1     -51.557  25.433  24.903  1.00  0.00     0.051 H 
ATOM     55  H   UNL     1     -50.564  25.745  23.471  1.00  0.00     0.051 H 
BRANCH  53  56
ATOM     56  N   UNL     1     -52.142  27.130  23.784  1.00  0.00    -0.309 NA
ATOM     57  H   UNL     1     -53.021  26.866  24.236  1.00  0.00     0.123 HD
BRANCH  56  58
ATOM     58  C   UNL     1     -52.296  27.077  22.334  1.00  0.00     0.010 C 
ATOM     59  H   UNL     1     -52.963  27.898  22.048  1.00  0.00     0.044 H 
ATOM     60  H   UNL     1     -52.828  26.158  22.059  1.00  0.00     0.044 H 
BRANCH  58  61
ATOM     61  C   UNL     1     -51.024  27.176  21.504  1.00  0.00     0.062 C 
ATOM     62  H   UNL     1     -50.156  26.781  22.044  1.00  0.00     0.045 H 
ATOM     63  H   UNL     1     -51.148  26.564  20.602  1.00  0.00     0.045 H 
BRANCH  61  64
ATOM     64  S   UNL     1     -50.581  28.809  20.939  1.00  0.00     0.148 S 
ATOM     65  O   UNL     1     -50.530  28.746  19.487  1.00  0.00    -0.229 OA
ATOM     66  O   UNL     1     -49.416  29.258  21.678  1.00  0.00    -0.229 OA
BRANCH  64  67
ATOM     67  C   UNL     1     -51.945  29.871  21.357  1.00  0.00     0.039 C 
ATOM     68  H   UNL     1     -51.555  30.799  21.777  1.00  0.00     0.040 H 
ATOM     69  H   UNL     1     -52.553  29.355  22.104  1.00  0.00     0.040 H 
ATOM     70  H   UNL     1     -52.551  30.063  20.471  1.00  0.00     0.040 H 
ENDBRANCH  64  67
ENDBRANCH  61  64
ENDBRANCH  58  61
ENDBRANCH  56  58
ENDBRANCH  53  56
ENDBRANCH  51  53
ENDBRANCH   3  46
BRANCH   5  71
ATOM     71  N   UNL     1     -46.214  28.774  23.185  1.00  0.00    -0.383 N 
ATOM     72  H   UNL     1     -46.017  28.318  24.072  1.00  0.00     0.158 HD
ATOM     73  H   UNL     1     -46.977  28.352  22.670  1.00  0.00     0.158 HD
ENDBRANCH   5  71
TORSDOF 14
ENDMDL
MODEL 5
REMARK VINA RESULT:      -8.9      4.705     13.325
REMARK SMILES CNc1ccc2ccc(OCc3cncc(-n4cc(-c5ccc(CNCCS(C)(=O)=O)o5)c5c(N)ncnc54)c3)cc2n1.O=C(O)C(F)(F)F
REMARK SMILES IDX 17 1 18 2 19 3 33 4 34 5 36 6 37 7 38 8 39 9 16 12 12 13
REMARK SMILES IDX 13 14 40 15 14 16 15 19 11 21 10 24 9 25 3 26 4 27 43 28
REMARK SMILES IDX 5 29 42 31 6 32 41 34 7 35 8 37 2 40 1 42 20 46 21 47 32 48
REMARK SMILES IDX 22 49 23 51 24 53 25 56 26 58 27 61 28 64 30 65 31 66 29 67
REMARK SMILES IDX 35 71
REMARK H PARENT 18 10 37 11 13 17 40 18 15 20 11 22 11 23 4 30 5 33 41 36 7 38
REMARK H PARENT 8 39 2 41 1 43 1 44 1 45 21 50 22 52 24 54 24 55 25 57 26 59
REMARK H PARENT 26 60 27 62 27 63 29 68 29 69 29 70 35 72 35 73
REMARK Flexibility Score: inf
ROOT
ATOM      1  N   UNL     1     -46.392  37.629  27.235  1.00  0.00    -0.299 N 
ATOM      2  C   UNL     1     -46.306  38.733  26.410  1.00  0.00     0.023 A 
ATOM      3  C   UNL     1     -45.516  39.695  27.003  1.00  0.00     0.049 A 
ATOM      4  C   UNL     1     -45.002  39.149  28.207  1.00  0.00     0.072 A 
ATOM      5  C   UNL     1     -44.096  39.522  29.216  1.00  0.00     0.137 A 
ATOM      6  N   UNL     1     -43.931  38.728  30.289  1.00  0.00    -0.219 NA
ATOM      7  C   UNL     1     -44.611  37.575  30.340  1.00  0.00     0.120 A 
ATOM      8  N   UNL     1     -45.433  37.077  29.415  1.00  0.00    -0.218 NA
ATOM      9  C   UNL     1     -45.596  37.891  28.351  1.00  0.00     0.150 A 
ATOM     10  H   UNL     1     -46.829  38.785  25.465  1.00  0.00     0.083 H 
ATOM     11  H   UNL     1     -44.465  36.971  31.230  1.00  0.00     0.106 H 
ENDROOT
BRANCH   1  12
ATOM     12  C   UNL     1     -47.173  36.460  26.966  1.00  0.00     0.066 A 
ATOM     13  C   UNL     1     -47.432  34.207  26.088  1.00  0.00     0.010 A 
ATOM     14  C   UNL     1     -48.734  34.225  26.568  1.00  0.00     0.034 A 
ATOM     15  C   UNL     1     -46.654  35.357  26.281  1.00  0.00    -0.028 A 
ATOM     16  N   UNL     1     -49.286  35.281  27.205  1.00  0.00    -0.262 NA
ATOM     17  H   UNL     1     -49.390  33.365  26.454  1.00  0.00     0.084 H 
ATOM     18  H   UNL     1     -45.647  35.359  25.878  1.00  0.00     0.065 H 
ATOM     19  C   UNL     1     -48.494  36.366  27.394  1.00  0.00     0.051 A 
ATOM     20  H   UNL     1     -48.996  37.153  27.946  1.00  0.00     0.086 H 
BRANCH  13  21
ATOM     21  C   UNL     1     -46.886  33.002  25.375  1.00  0.00     0.115 C 
ATOM     22  H   UNL     1     -46.703  32.152  26.045  1.00  0.00     0.076 H 
ATOM     23  H   UNL     1     -45.900  33.270  24.974  1.00  0.00     0.076 H 
BRANCH  21  24
ATOM     24  O   UNL     1     -47.696  32.624  24.259  1.00  0.00    -0.489 OA
BRANCH  24  25
ATOM     25  C   UNL     1     -48.335  31.415  24.286  1.00  0.00     0.122 A 
ATOM     26  C   UNL     1     -48.661  26.734  25.093  1.00  0.00     0.126 A 
ATOM     27  C   UNL     1     -49.992  26.708  24.694  1.00  0.00    -0.019 A 
ATOM     28  N   UNL     1     -47.939  27.873  25.065  1.00  0.00    -0.231 NA
ATOM     29  C   UNL     1     -50.608  27.889  24.288  1.00  0.00    -0.049 A 
ATOM     30  H   UNL     1     -50.547  25.777  24.691  1.00  0.00     0.066 H 
ATOM     31  C   UNL     1     -48.528  29.018  24.676  1.00  0.00     0.076 A 
ATOM     32  C   UNL     1     -49.876  29.077  24.279  1.00  0.00     0.001 A 
ATOM     33  H   UNL     1     -51.650  27.870  23.980  1.00  0.00     0.063 H 
ATOM     34  C   UNL     1     -47.780  30.191  24.668  1.00  0.00     0.007 A 
ATOM     35  C   UNL     1     -50.445  30.300  23.891  1.00  0.00    -0.049 A 
ATOM     36  H   UNL     1     -46.749  30.104  24.984  1.00  0.00     0.069 H 
ATOM     37  C   UNL     1     -49.674  31.460  23.901  1.00  0.00    -0.019 A 
ATOM     38  H   UNL     1     -51.486  30.355  23.584  1.00  0.00     0.063 H 
ATOM     39  H   UNL     1     -50.120  32.407  23.604  1.00  0.00     0.066 H 
BRANCH  26  40
ATOM     40  N   UNL     1     -48.067  25.520  25.487  1.00  0.00    -0.373 N 
ATOM     41  H   UNL     1     -48.764  24.783  25.432  1.00  0.00     0.161 HD
BRANCH  40  42
ATOM     42  C   UNL     1     -47.441  25.565  26.799  1.00  0.00     0.005 C 
ATOM     43  H   UNL     1     -46.379  25.828  26.730  1.00  0.00     0.045 H 
ATOM     44  H   UNL     1     -47.500  24.571  27.254  1.00  0.00     0.045 H 
ATOM     45  H   UNL     1     -47.952  26.266  27.468  1.00  0.00     0.045 H 
ENDBRANCH  40  42
ENDBRANCH  26  40
ENDBRANCH  24  25
ENDBRANCH  21  24
ENDBRANCH  13  21
ENDBRANCH   1  12
BRANCH   3  46
ATOM     46  C   UNL     1     -45.356  41.094  26.330  1.00  0.00     0.136 A 
ATOM     47  C   UNL     1     -44.305  41.577  25.578  1.00  0.00    -0.015 A 
ATOM     48  O   UNL     1     -46.295  42.085  26.467  1.00  0.00    -0.460 OA
ATOM     49  C   UNL     1     -44.631  42.906  25.209  1.00  0.00    -0.019 A 
ATOM     50  H   UNL     1     -43.380  41.071  25.351  1.00  0.00     0.066 H 
ATOM     51  C   UNL     1     -45.858  43.171  25.771  1.00  0.00     0.118 A 
ATOM     52  H   UNL     1     -44.036  43.600  24.629  1.00  0.00     0.066 H 
BRANCH  51  53
ATOM     53  C   UNL     1     -46.734  44.371  25.782  1.00  0.00     0.054 C 
ATOM     54  H   UNL     1     -46.206  45.208  26.256  1.00  0.00     0.051 H 
ATOM     55  H   UNL     1     -47.618  44.149  26.389  1.00  0.00     0.051 H 
BRANCH  53  56
ATOM     56  N   UNL     1     -47.111  44.718  24.407  1.00  0.00    -0.309 NA
ATOM     57  H   UNL     1     -47.104  43.850  23.866  1.00  0.00     0.123 HD
BRANCH  56  58
ATOM     58  C   UNL     1     -46.218  45.693  23.791  1.00  0.00     0.010 C 
ATOM     59  H   UNL     1     -45.494  45.999  24.555  1.00  0.00     0.044 H 
ATOM     60  H   UNL     1     -46.785  46.600  23.546  1.00  0.00     0.044 H 
BRANCH  58  61
ATOM     61  C   UNL     1     -45.455  45.242  22.553  1.00  0.00     0.062 C 
ATOM     62  H   UNL     1     -45.058  44.228  22.670  1.00  0.00     0.045 H 
ATOM     63  H   UNL     1     -46.150  45.221  21.705  1.00  0.00     0.045 H 
BRANCH  61  64
ATOM     64  S   UNL     1     -44.092  46.278  22.053  1.00  0.00     0.148 S 
ATOM     65  O   UNL     1     -43.047  45.386  21.576  1.00  0.00    -0.229 OA
ATOM     66  O   UNL     1     -43.801  47.215  23.122  1.00  0.00    -0.229 OA
BRANCH  64  67
ATOM     67  C   UNL     1     -44.656  47.205  20.643  1.00  0.00     0.039 C 
ATOM     68  H   UNL     1     -43.895  47.159  19.863  1.00  0.00     0.040 H 
ATOM     69  H   UNL     1     -44.796  48.241  20.960  1.00  0.00     0.040 H 
ATOM     70  H   UNL     1     -45.607  46.804  20.293  1.00  0.00     0.040 H 
ENDBRANCH  64  67
ENDBRANCH  61  64
ENDBRANCH  58  61
ENDBRANCH  56  58
ENDBRANCH  53  56
ENDBRANCH  51  53
ENDBRANCH   3  46
BRANCH   5  71
ATOM     71  N   UNL     1     -43.270  40.640  29.175  1.00  0.00    -0.383 N 
ATOM     72  H   UNL     1     -43.619  41.273  28.461  1.00  0.00     0.158 HD
ATOM     73  H   UNL     1     -43.162  41.072  30.085  1.00  0.00     0.158 HD
ENDBRANCH   5  71
TORSDOF 14
ENDMDL
MODEL 6
REMARK VINA RESULT:      -8.6      4.565     13.357
REMARK SMILES CNc1ccc2ccc(OCc3cncc(-n4cc(-c5ccc(CNCCS(C)(=O)=O)o5)c5c(N)ncnc54)c3)cc2n1.O=C(O)C(F)(F)F
REMARK SMILES IDX 17 1 18 2 19 3 33 4 34 5 36 6 37 7 38 8 39 9 16 12 12 13
REMARK SMILES IDX 13 14 40 15 14 16 15 19 11 21 10 24 9 25 3 26 4 27 43 28
REMARK SMILES IDX 5 29 42 31 6 32 41 34 7 35 8 37 2 40 1 42 20 46 21 47 32 48
REMARK SMILES IDX 22 49 23 51 24 53 25 56 26 58 27 61 28 64 30 65 31 66 29 67
REMARK SMILES IDX 35 71
REMARK H PARENT 18 10 37 11 13 17 40 18 15 20 11 22 11 23 4 30 5 33 41 36 7 38
REMARK H PARENT 8 39 2 41 1 43 1 44 1 45 21 50 22 52 24 54 24 55 25 57 26 59
REMARK H PARENT 26 60 27 62 27 63 29 68 29 69 29 70 35 72 35 73
REMARK Flexibility Score: inf
ROOT
ATOM      1  N   UNL     1     -46.081  39.533  27.090  1.00  0.00    -0.299 N 
ATOM      2  C   UNL     1     -44.868  40.102  26.756  1.00  0.00     0.023 A 
ATOM      3  C   UNL     1     -45.070  41.385  26.293  1.00  0.00     0.049 A 
ATOM      4  C   UNL     1     -46.452  41.679  26.426  1.00  0.00     0.072 A 
ATOM      5  C   UNL     1     -47.302  42.785  26.247  1.00  0.00     0.137 A 
ATOM      6  N   UNL     1     -48.630  42.635  26.405  1.00  0.00    -0.219 NA
ATOM      7  C   UNL     1     -49.097  41.435  26.774  1.00  0.00     0.120 A 
ATOM      8  N   UNL     1     -48.389  40.338  27.049  1.00  0.00    -0.218 NA
ATOM      9  C   UNL     1     -47.061  40.503  26.875  1.00  0.00     0.150 A 
ATOM     10  H   UNL     1     -43.937  39.559  26.838  1.00  0.00     0.083 H 
ATOM     11  H   UNL     1     -50.175  41.349  26.874  1.00  0.00     0.106 H 
ENDROOT
BRANCH   1  12
ATOM     12  C   UNL     1     -46.259  38.190  27.554  1.00  0.00     0.066 A 
ATOM     13  C   UNL     1     -46.999  35.894  27.249  1.00  0.00     0.010 A 
ATOM     14  C   UNL     1     -46.480  35.614  28.505  1.00  0.00     0.034 A 
ATOM     15  C   UNL     1     -46.896  37.213  26.784  1.00  0.00    -0.028 A 
ATOM     16  N   UNL     1     -45.887  36.535  29.296  1.00  0.00    -0.262 NA
ATOM     17  H   UNL     1     -46.524  34.611  28.923  1.00  0.00     0.084 H 
ATOM     18  H   UNL     1     -47.329  37.443  25.817  1.00  0.00     0.065 H 
ATOM     19  C   UNL     1     -45.784  37.794  28.801  1.00  0.00     0.051 A 
ATOM     20  H   UNL     1     -45.262  38.462  29.477  1.00  0.00     0.086 H 
BRANCH  13  21
ATOM     21  C   UNL     1     -47.659  34.823  26.426  1.00  0.00     0.115 C 
ATOM     22  H   UNL     1     -48.627  35.133  26.014  1.00  0.00     0.076 H 
ATOM     23  H   UNL     1     -47.886  33.982  27.093  1.00  0.00     0.076 H 
BRANCH  21  24
ATOM     24  O   UNL     1     -46.793  34.318  25.406  1.00  0.00    -0.489 OA
BRANCH  24  25
ATOM     25  C   UNL     1     -46.940  33.021  24.998  1.00  0.00     0.122 A 
ATOM     26  C   UNL     1     -48.858  28.665  25.099  1.00  0.00     0.126 A 
ATOM     27  C   UNL     1     -48.059  28.235  24.046  1.00  0.00    -0.019 A 
ATOM     28  N   UNL     1     -48.759  29.916  25.594  1.00  0.00    -0.231 NA
ATOM     29  C   UNL     1     -47.158  29.122  23.463  1.00  0.00    -0.049 A 
ATOM     30  H   UNL     1     -48.130  27.216  23.683  1.00  0.00     0.066 H 
ATOM     31  C   UNL     1     -47.892  30.780  25.035  1.00  0.00     0.076 A 
ATOM     32  C   UNL     1     -47.066  30.427  23.953  1.00  0.00     0.001 A 
ATOM     33  H   UNL     1     -46.537  28.789  22.638  1.00  0.00     0.063 H 
ATOM     34  C   UNL     1     -47.810  32.073  25.540  1.00  0.00     0.007 A 
ATOM     35  C   UNL     1     -46.186  31.369  23.400  1.00  0.00    -0.049 A 
ATOM     36  H   UNL     1     -48.465  32.306  26.370  1.00  0.00     0.069 H 
ATOM     37  C   UNL     1     -46.130  32.660  23.922  1.00  0.00    -0.019 A 
ATOM     38  H   UNL     1     -45.544  31.106  22.563  1.00  0.00     0.063 H 
ATOM     39  H   UNL     1     -45.450  33.389  23.486  1.00  0.00     0.066 H 
BRANCH  26  40
ATOM     40  N   UNL     1     -49.750  27.738  25.672  1.00  0.00    -0.373 N 
ATOM     41  H   UNL     1     -49.266  27.234  26.409  1.00  0.00     0.161 HD
BRANCH  40  42
ATOM     42  C   UNL     1     -50.357  26.829  24.712  1.00  0.00     0.005 C 
ATOM     43  H   UNL     1     -49.869  25.848  24.723  1.00  0.00     0.045 H 
ATOM     44  H   UNL     1     -50.235  27.241  23.706  1.00  0.00     0.045 H 
ATOM     45  H   UNL     1     -51.431  26.708  24.893  1.00  0.00     0.045 H 
ENDBRANCH  40  42
ENDBRANCH  26  40
ENDBRANCH  24  25
ENDBRANCH  21  24
ENDBRANCH  13  21
ENDBRANCH   1  12
BRANCH   3  46
ATOM     46  C   UNL     1     -43.869  42.209  25.733  1.00  0.00     0.136 A 
ATOM     47  C   UNL     1     -42.769  42.701  26.405  1.00  0.00    -0.015 A 
ATOM     48  O   UNL     1     -43.800  42.604  24.421  1.00  0.00    -0.460 OA
ATOM     49  C   UNL     1     -41.975  43.393  25.456  1.00  0.00    -0.019 A 
ATOM     50  H   UNL     1     -42.564  42.627  27.461  1.00  0.00     0.066 H 
ATOM     51  C   UNL     1     -42.643  43.303  24.257  1.00  0.00     0.118 A 
ATOM     52  H   UNL     1     -41.045  43.920  25.625  1.00  0.00     0.066 H 
BRANCH  51  53
ATOM     53  C   UNL     1     -42.364  43.828  22.895  1.00  0.00     0.054 C 
ATOM     54  H   UNL     1     -41.939  43.030  22.273  1.00  0.00     0.051 H 
ATOM     55  H   UNL     1     -41.614  44.621  22.976  1.00  0.00     0.051 H 
BRANCH  53  56
ATOM     56  N   UNL     1     -43.605  44.334  22.299  1.00  0.00    -0.309 NA
ATOM     57  H   UNL     1     -43.706  43.883  21.387  1.00  0.00     0.123 HD
BRANCH  56  58
ATOM     58  C   UNL     1     -43.622  45.784  22.141  1.00  0.00     0.010 C 
ATOM     59  H   UNL     1     -43.984  45.996  21.128  1.00  0.00     0.044 H 
ATOM     60  H   UNL     1     -42.594  46.165  22.170  1.00  0.00     0.044 H 
BRANCH  58  61
ATOM     61  C   UNL     1     -44.466  46.575  23.132  1.00  0.00     0.062 C 
ATOM     62  H   UNL     1     -44.092  46.469  24.156  1.00  0.00     0.045 H 
ATOM     63  H   UNL     1     -44.401  47.638  22.873  1.00  0.00     0.045 H 
BRANCH  61  64
ATOM     64  S   UNL     1     -46.204  46.177  23.172  1.00  0.00     0.148 S 
ATOM     65  O   UNL     1     -46.766  46.888  24.310  1.00  0.00    -0.229 OA
ATOM     66  O   UNL     1     -46.355  44.736  23.082  1.00  0.00    -0.229 OA
BRANCH  64  67
ATOM     67  C   UNL     1     -46.919  46.901  21.713  1.00  0.00     0.039 C 
ATOM     68  H   UNL     1     -46.667  46.281  20.851  1.00  0.00     0.040 H 
ATOM     69  H   UNL     1     -46.488  47.897  21.590  1.00  0.00     0.040 H 
ATOM     70  H   UNL     1     -47.999  46.989  21.835  1.00  0.00     0.040 H 
ENDBRANCH  64  67
ENDBRANCH  61  64
ENDBRANCH  58  61
ENDBRANCH  56  58
ENDBRANCH  53  56
ENDBRANCH  51  53
ENDBRANCH   3  46
BRANCH   5  71
ATOM     71  N   UNL     1     -46.881  44.083  25.982  1.00  0.00    -0.383 N 
ATOM     72  H   UNL     1     -47.509  44.728  26.454  1.00  0.00     0.158 HD
ATOM     73  H   UNL     1     -45.904  44.224  26.210  1.00  0.00     0.158 HD
ENDBRANCH   5  71
TORSDOF 14
ENDMDL
MODEL 7
REMARK VINA RESULT:      -8.5      4.666     13.344
REMARK SMILES CNc1ccc2ccc(OCc3cncc(-n4cc(-c5ccc(CNCCS(C)(=O)=O)o5)c5c(N)ncnc54)c3)cc2n1.O=C(O)C(F)(F)F
REMARK SMILES IDX 17 1 18 2 19 3 33 4 34 5 36 6 37 7 38 8 39 9 16 12 12 13
REMARK SMILES IDX 13 14 40 15 14 16 15 19 11 21 10 24 9 25 3 26 4 27 43 28
REMARK SMILES IDX 5 29 42 31 6 32 41 34 7 35 8 37 2 40 1 42 20 46 21 47 32 48
REMARK SMILES IDX 22 49 23 51 24 53 25 56 26 58 27 61 28 64 30 65 31 66 29 67
REMARK SMILES IDX 35 71
REMARK H PARENT 18 10 37 11 13 17 40 18 15 20 11 22 11 23 4 30 5 33 41 36 7 38
REMARK H PARENT 8 39 2 41 1 43 1 44 1 45 21 50 22 52 24 54 24 55 25 57 26 59
REMARK H PARENT 26 60 27 62 27 63 29 68 29 69 29 70 35 72 35 73
REMARK Flexibility Score: inf
ROOT
ATOM      1  N   UNL     1     -45.222  39.285  27.567  1.00  0.00    -0.299 N 
ATOM      2  C   UNL     1     -45.518  40.094  26.488  1.00  0.00     0.023 A 
ATOM      3  C   UNL     1     -44.708  41.210  26.509  1.00  0.00     0.049 A 
ATOM      4  C   UNL     1     -43.798  41.063  27.587  1.00  0.00     0.072 A 
ATOM      5  C   UNL     1     -42.684  41.744  28.110  1.00  0.00     0.137 A 
ATOM      6  N   UNL     1     -42.114  41.311  29.249  1.00  0.00    -0.219 NA
ATOM      7  C   UNL     1     -42.605  40.208  29.829  1.00  0.00     0.120 A 
ATOM      8  N   UNL     1     -43.600  39.435  29.390  1.00  0.00    -0.218 NA
ATOM      9  C   UNL     1     -44.167  39.890  28.253  1.00  0.00     0.150 A 
ATOM     10  H   UNL     1     -46.300  39.848  25.784  1.00  0.00     0.083 H 
ATOM     11  H   UNL     1     -42.130  39.902  30.756  1.00  0.00     0.106 H 
ENDROOT
BRANCH   1  12
ATOM     12  C   UNL     1     -45.902  38.069  27.894  1.00  0.00     0.066 A 
ATOM     13  C   UNL     1     -46.887  35.930  27.286  1.00  0.00     0.010 A 
ATOM     14  C   UNL     1     -47.136  35.720  28.635  1.00  0.00     0.034 A 
ATOM     15  C   UNL     1     -46.274  37.137  26.920  1.00  0.00    -0.028 A 
ATOM     16  N   UNL     1     -46.825  36.608  29.604  1.00  0.00    -0.262 NA
ATOM     17  H   UNL     1     -47.606  34.804  28.986  1.00  0.00     0.084 H 
ATOM     18  H   UNL     1     -46.107  37.319  25.865  1.00  0.00     0.065 H 
ATOM     19  C   UNL     1     -46.211  37.753  29.213  1.00  0.00     0.051 A 
ATOM     20  H   UNL     1     -45.958  38.393  30.052  1.00  0.00     0.086 H 
BRANCH  13  21
ATOM     21  C   UNL     1     -47.274  34.905  26.257  1.00  0.00     0.115 C 
ATOM     22  H   UNL     1     -46.936  35.162  25.245  1.00  0.00     0.076 H 
ATOM     23  H   UNL     1     -48.369  34.886  26.199  1.00  0.00     0.076 H 
BRANCH  21  24
ATOM     24  O   UNL     1     -46.858  33.588  26.628  1.00  0.00    -0.489 OA
BRANCH  24  25
ATOM     25  C   UNL     1     -47.118  32.549  25.777  1.00  0.00     0.122 A 
ATOM     26  C   UNL     1     -49.577  28.794  24.190  1.00  0.00     0.126 A 
ATOM     27  C   UNL     1     -48.715  28.622  23.113  1.00  0.00    -0.019 A 
ATOM     28  N   UNL     1     -49.380  29.768  25.102  1.00  0.00    -0.231 NA
ATOM     29  C   UNL     1     -47.642  29.494  22.949  1.00  0.00    -0.049 A 
ATOM     30  H   UNL     1     -48.870  27.813  22.409  1.00  0.00     0.066 H 
ATOM     31  C   UNL     1     -48.347  30.616  24.949  1.00  0.00     0.076 A 
ATOM     32  C   UNL     1     -47.445  30.521  23.875  1.00  0.00     0.001 A 
ATOM     33  H   UNL     1     -46.971  29.364  22.105  1.00  0.00     0.063 H 
ATOM     34  C   UNL     1     -48.163  31.629  25.884  1.00  0.00     0.007 A 
ATOM     35  C   UNL     1     -46.389  31.437  23.756  1.00  0.00    -0.049 A 
ATOM     36  H   UNL     1     -48.880  31.671  26.693  1.00  0.00     0.069 H 
ATOM     37  C   UNL     1     -46.234  32.447  24.703  1.00  0.00    -0.019 A 
ATOM     38  H   UNL     1     -45.687  31.373  22.928  1.00  0.00     0.063 H 
ATOM     39  H   UNL     1     -45.417  33.159  24.605  1.00  0.00     0.066 H 
BRANCH  26  40
ATOM     40  N   UNL     1     -50.644  27.887  24.332  1.00  0.00    -0.373 N 
ATOM     41  H   UNL     1     -51.261  28.222  25.066  1.00  0.00     0.161 HD
BRANCH  40  42
ATOM     42  C   UNL     1     -50.228  26.514  24.570  1.00  0.00     0.005 C 
ATOM     43  H   UNL     1     -50.855  26.028  25.326  1.00  0.00     0.045 H 
ATOM     44  H   UNL     1     -49.202  26.516  24.950  1.00  0.00     0.045 H 
ATOM     45  H   UNL     1     -50.238  25.923  23.647  1.00  0.00     0.045 H 
ENDBRANCH  40  42
ENDBRANCH  26  40
ENDBRANCH  24  25
ENDBRANCH  21  24
ENDBRANCH  13  21
ENDBRANCH   1  12
BRANCH   3  46
ATOM     46  C   UNL     1     -44.923  42.348  25.463  1.00  0.00     0.136 A 
ATOM     47  C   UNL     1     -44.193  42.627  24.326  1.00  0.00    -0.015 A 
ATOM     48  O   UNL     1     -45.907  43.293  25.600  1.00  0.00    -0.460 OA
ATOM     49  C   UNL     1     -44.778  43.768  23.723  1.00  0.00    -0.019 A 
ATOM     50  H   UNL     1     -43.310  42.115  23.976  1.00  0.00     0.066 H 
ATOM     51  C   UNL     1     -45.825  44.138  24.535  1.00  0.00     0.118 A 
ATOM     52  H   UNL     1     -44.463  44.281  22.823  1.00  0.00     0.066 H 
BRANCH  51  53
ATOM     53  C   UNL     1     -46.811  45.247  24.482  1.00  0.00     0.054 C 
ATOM     54  H   UNL     1     -47.626  44.984  23.796  1.00  0.00     0.051 H 
ATOM     55  H   UNL     1     -46.313  46.136  24.080  1.00  0.00     0.051 H 
BRANCH  53  56
ATOM     56  N   UNL     1     -47.338  45.502  25.827  1.00  0.00    -0.309 NA
ATOM     57  H   UNL     1     -47.936  44.709  26.071  1.00  0.00     0.123 HD
BRANCH  56  58
ATOM     58  C   UNL     1     -48.097  46.743  25.927  1.00  0.00     0.010 C 
ATOM     59  H   UNL     1     -49.147  46.499  25.731  1.00  0.00     0.044 H 
ATOM     60  H   UNL     1     -47.797  47.419  25.116  1.00  0.00     0.044 H 
BRANCH  58  61
ATOM     61  C   UNL     1     -48.014  47.497  27.248  1.00  0.00     0.062 C 
ATOM     62  H   UNL     1     -47.066  48.036  27.347  1.00  0.00     0.045 H 
ATOM     63  H   UNL     1     -48.815  48.245  27.273  1.00  0.00     0.045 H 
BRANCH  61  64
ATOM     64  S   UNL     1     -48.206  46.513  28.723  1.00  0.00     0.148 S 
ATOM     65  O   UNL     1     -48.375  47.447  29.825  1.00  0.00    -0.229 OA
ATOM     66  O   UNL     1     -47.138  45.532  28.772  1.00  0.00    -0.229 OA
BRANCH  64  67
ATOM     67  C   UNL     1     -49.748  45.643  28.550  1.00  0.00     0.039 C 
ATOM     68  H   UNL     1     -50.152  45.835  27.555  1.00  0.00     0.040 H 
ATOM     69  H   UNL     1     -50.435  46.028  29.307  1.00  0.00     0.040 H 
ATOM     70  H   UNL     1     -49.592  44.577  28.715  1.00  0.00     0.040 H 
ENDBRANCH  64  67
ENDBRANCH  61  64
ENDBRANCH  58  61
ENDBRANCH  56  58
ENDBRANCH  53  56
ENDBRANCH  51  53
ENDBRANCH   3  46
BRANCH   5  71
ATOM     71  N   UNL     1     -42.047  42.820  27.501  1.00  0.00    -0.383 N 
ATOM     72  H   UNL     1     -41.305  43.144  28.114  1.00  0.00     0.158 HD
ATOM     73  H   UNL     1     -41.735  42.602  26.563  1.00  0.00     0.158 HD
ENDBRANCH   5  71
TORSDOF 14
ENDMDL
