MODEL 1
REMARK VINA RESULT:     -10.4      0.000      0.000
REMARK SMILES Cn1ccc(-c2cn([C@H]3C[C@H](O)[C@@H](COc4ccc5ccc(NC6CC6)nc5c4)O3)c3ncnc(N)c23)n1
REMARK SMILES IDX 14 1 13 4 9 5 10 6 30 7 11 9 8 14 6 15 7 16 37 17 31 19
REMARK SMILES IDX 35 20 32 21 34 22 33 23 5 25 2 26 3 27 38 28 4 29 1 32 36 36
REMARK SMILES IDX 12 39 15 41 16 42 17 43 29 44 18 45 28 47 19 49 27 51 20 52
REMARK SMILES IDX 22 53 21 54 23 57 24 59 25 60 26 61
REMARK H PARENT 14 2 14 3 9 8 10 10 10 11 11 12 13 13 7 18 33 24 3 30 4 31
REMARK H PARENT 1 33 1 34 1 35 36 37 36 38 12 40 17 46 29 48 18 50 20 55 21 56
REMARK H PARENT 23 58 24 62 25 63 25 64 26 65 26 66
REMARK Flexibility Score: inf
ROOT
ATOM      1  C   UNL     1     -46.849  36.038  26.967  1.00  0.00     0.117 C 
ATOM      2  H   UNL     1     -46.238  35.992  26.058  1.00  0.00     0.073 H 
ATOM      3  H   UNL     1     -47.395  36.988  26.938  1.00  0.00     0.073 H 
ENDROOT
BRANCH   1   4
ATOM      4  C   UNL     1     -45.988  35.986  28.238  1.00  0.00     0.120 C 
ATOM      5  C   UNL     1     -45.043  37.964  29.058  1.00  0.00     0.138 C 
ATOM      6  C   UNL     1     -46.474  37.906  29.575  1.00  0.00     0.022 C 
ATOM      7  O   UNL     1     -44.881  36.905  28.098  1.00  0.00    -0.348 OA
ATOM      8  H   UNL     1     -44.360  37.737  29.888  1.00  0.00     0.085 H 
ATOM      9  C   UNL     1     -46.764  36.429  29.484  1.00  0.00     0.088 C 
ATOM     10  H   UNL     1     -47.182  38.445  28.945  1.00  0.00     0.034 H 
ATOM     11  H   UNL     1     -46.547  38.314  30.589  1.00  0.00     0.034 H 
ATOM     12  H   UNL     1     -47.831  36.191  29.438  1.00  0.00     0.063 H 
ATOM     13  H   UNL     1     -45.561  34.985  28.361  1.00  0.00     0.067 H 
BRANCH   5  14
ATOM     14  N   UNL     1     -44.583  39.207  28.463  1.00  0.00    -0.305 N 
ATOM     15  C   UNL     1     -44.583  41.018  27.150  1.00  0.00     0.033 A 
ATOM     16  C   UNL     1     -45.213  39.815  27.399  1.00  0.00     0.019 A 
ATOM     17  C   UNL     1     -43.529  41.156  28.104  1.00  0.00     0.071 A 
ATOM     18  H   UNL     1     -46.065  39.349  26.922  1.00  0.00     0.083 H 
ATOM     19  C   UNL     1     -43.542  40.000  28.883  1.00  0.00     0.148 A 
ATOM     20  C   UNL     1     -42.558  42.118  28.437  1.00  0.00     0.137 A 
ATOM     21  N   UNL     1     -42.701  39.719  29.895  1.00  0.00    -0.218 NA
ATOM     22  N   UNL     1     -41.677  41.856  29.420  1.00  0.00    -0.219 NA
ATOM     23  C   UNL     1     -41.811  40.704  30.096  1.00  0.00     0.120 A 
ATOM     24  H   UNL     1     -41.108  40.553  30.909  1.00  0.00     0.106 H 
BRANCH  15  25
ATOM     25  C   UNL     1     -44.937  41.979  26.100  1.00  0.00     0.095 A 
ATOM     26  N   UNL     1     -44.861  43.177  24.360  1.00  0.00    -0.275 N 
ATOM     27  C   UNL     1     -46.071  43.466  24.916  1.00  0.00     0.025 A 
ATOM     28  N   UNL     1     -44.153  42.263  25.050  1.00  0.00    -0.173 NA
ATOM     29  C   UNL     1     -46.152  42.698  26.055  1.00  0.00    -0.016 A 
ATOM     30  H   UNL     1     -46.754  44.179  24.476  1.00  0.00     0.084 H 
ATOM     31  H   UNL     1     -46.970  42.674  26.760  1.00  0.00     0.066 H 
BRANCH  26  32
ATOM     32  C   UNL     1     -44.304  43.743  23.154  1.00  0.00     0.030 C 
ATOM     33  H   UNL     1     -44.944  43.460  22.314  1.00  0.00     0.048 H 
ATOM     34  H   UNL     1     -43.294  43.353  23.002  1.00  0.00     0.048 H 
ATOM     35  H   UNL     1     -44.274  44.829  23.266  1.00  0.00     0.048 H 
ENDBRANCH  26  32
ENDBRANCH  15  25
BRANCH  20  36
ATOM     36  N   UNL     1     -42.449  43.361  27.824  1.00  0.00    -0.383 N 
ATOM     37  H   UNL     1     -42.434  43.280  26.802  1.00  0.00     0.158 HD
ATOM     38  H   UNL     1     -41.714  43.910  28.246  1.00  0.00     0.158 HD
ENDBRANCH  20  36
ENDBRANCH   5  14
BRANCH   9  39
ATOM     39  O   UNL     1     -46.228  35.790  30.646  1.00  0.00    -0.390 OA
ATOM     40  H   UNL     1     -45.756  36.465  31.166  1.00  0.00     0.211 HD
ENDBRANCH   9  39
ENDBRANCH   1   4
BRANCH   1  41
ATOM     41  O   UNL     1     -47.860  35.013  27.014  1.00  0.00    -0.491 OA
BRANCH  41  42
ATOM     42  C   UNL     1     -47.620  33.924  26.222  1.00  0.00     0.121 A 
ATOM     43  C   UNL     1     -46.497  33.982  25.404  1.00  0.00    -0.019 A 
ATOM     44  C   UNL     1     -48.468  32.820  26.153  1.00  0.00     0.007 A 
ATOM     45  C   UNL     1     -46.196  32.911  24.563  1.00  0.00    -0.049 A 
ATOM     46  H   UNL     1     -45.852  34.857  25.425  1.00  0.00     0.066 H 
ATOM     47  C   UNL     1     -48.186  31.733  25.339  1.00  0.00     0.076 A 
ATOM     48  H   UNL     1     -49.382  32.791  26.734  1.00  0.00     0.069 H 
ATOM     49  C   UNL     1     -47.031  31.780  24.536  1.00  0.00     0.001 A 
ATOM     50  H   UNL     1     -45.311  32.960  23.935  1.00  0.00     0.063 H 
ATOM     51  N   UNL     1     -49.013  30.673  25.351  1.00  0.00    -0.231 NA
ATOM     52  C   UNL     1     -46.761  30.674  23.726  1.00  0.00    -0.049 A 
ATOM     53  C   UNL     1     -48.724  29.600  24.591  1.00  0.00     0.126 A 
ATOM     54  C   UNL     1     -47.617  29.575  23.754  1.00  0.00    -0.019 A 
ATOM     55  H   UNL     1     -45.892  30.657  23.075  1.00  0.00     0.063 H 
ATOM     56  H   UNL     1     -47.417  28.715  23.126  1.00  0.00     0.066 H 
BRANCH  53  57
ATOM     57  N   UNL     1     -49.620  28.522  24.677  1.00  0.00    -0.367 N 
ATOM     58  H   UNL     1     -49.572  28.199  25.650  1.00  0.00     0.162 HD
BRANCH  57  59
ATOM     59  C   UNL     1     -49.610  27.477  23.655  1.00  0.00     0.028 C 
ATOM     60  C   UNL     1     -50.191  27.713  22.289  1.00  0.00    -0.031 C 
ATOM     61  C   UNL     1     -50.901  26.816  23.259  1.00  0.00    -0.031 C 
ATOM     62  H   UNL     1     -48.750  26.816  23.739  1.00  0.00     0.053 H 
ATOM     63  H   UNL     1     -49.691  27.257  21.444  1.00  0.00     0.029 H 
ATOM     64  H   UNL     1     -50.629  28.683  22.084  1.00  0.00     0.029 H 
ATOM     65  H   UNL     1     -50.886  25.749  23.075  1.00  0.00     0.029 H 
ATOM     66  H   UNL     1     -51.816  27.180  23.713  1.00  0.00     0.029 H 
ENDBRANCH  57  59
ENDBRANCH  53  57
ENDBRANCH  41  42
ENDBRANCH   1  41
TORSDOF 10
ENDMDL
MODEL 2
REMARK VINA RESULT:      -9.7      1.745      2.845
REMARK SMILES Cn1ccc(-c2cn([C@H]3C[C@H](O)[C@@H](COc4ccc5ccc(NC6CC6)nc5c4)O3)c3ncnc(N)c23)n1
REMARK SMILES IDX 14 1 13 4 9 5 10 6 30 7 11 9 8 14 6 15 7 16 37 17 31 19
REMARK SMILES IDX 35 20 32 21 34 22 33 23 5 25 2 26 3 27 38 28 4 29 1 32 36 36
REMARK SMILES IDX 12 39 15 41 16 42 17 43 29 44 18 45 28 47 19 49 27 51 20 52
REMARK SMILES IDX 22 53 21 54 23 57 24 59 25 60 26 61
REMARK H PARENT 14 2 14 3 9 8 10 10 10 11 11 12 13 13 7 18 33 24 3 30 4 31
REMARK H PARENT 1 33 1 34 1 35 36 37 36 38 12 40 17 46 29 48 18 50 20 55 21 56
REMARK H PARENT 23 58 24 62 25 63 25 64 26 65 26 66
REMARK Flexibility Score: inf
ROOT
ATOM      1  C   UNL     1     -46.803  35.357  26.677  1.00  0.00     0.117 C 
ATOM      2  H   UNL     1     -46.171  35.183  25.800  1.00  0.00     0.073 H 
ATOM      3  H   UNL     1     -47.425  36.232  26.455  1.00  0.00     0.073 H 
ENDROOT
BRANCH   1   4
ATOM      4  C   UNL     1     -45.969  35.634  27.937  1.00  0.00     0.120 C 
ATOM      5  C   UNL     1     -45.668  37.846  28.643  1.00  0.00     0.138 C 
ATOM      6  C   UNL     1     -47.016  37.386  29.183  1.00  0.00     0.022 C 
ATOM      7  O   UNL     1     -45.191  36.837  27.736  1.00  0.00    -0.348 OA
ATOM      8  H   UNL     1     -44.950  37.880  29.473  1.00  0.00     0.085 H 
ATOM      9  C   UNL     1     -46.845  35.888  29.171  1.00  0.00     0.088 C 
ATOM     10  H   UNL     1     -47.852  37.652  28.536  1.00  0.00     0.034 H 
ATOM     11  H   UNL     1     -47.210  37.806  30.175  1.00  0.00     0.034 H 
ATOM     12  H   UNL     1     -47.789  35.336  29.152  1.00  0.00     0.063 H 
ATOM     13  H   UNL     1     -45.259  34.818  28.105  1.00  0.00     0.067 H 
BRANCH   5  14
ATOM     14  N   UNL     1     -45.604  39.137  27.979  1.00  0.00    -0.305 N 
ATOM     15  C   UNL     1     -44.734  40.872  26.867  1.00  0.00     0.033 A 
ATOM     16  C   UNL     1     -44.429  39.702  27.535  1.00  0.00     0.019 A 
ATOM     17  C   UNL     1     -46.154  41.026  26.897  1.00  0.00     0.071 A 
ATOM     18  H   UNL     1     -43.479  39.216  27.715  1.00  0.00     0.083 H 
ATOM     19  C   UNL     1     -46.657  39.945  27.620  1.00  0.00     0.148 A 
ATOM     20  C   UNL     1     -47.104  41.933  26.394  1.00  0.00     0.137 A 
ATOM     21  N   UNL     1     -47.953  39.713  27.896  1.00  0.00    -0.218 NA
ATOM     22  N   UNL     1     -48.407  41.751  26.680  1.00  0.00    -0.219 NA
ATOM     23  C   UNL     1     -48.753  40.660  27.380  1.00  0.00     0.120 A 
ATOM     24  H   UNL     1     -49.817  40.529  27.550  1.00  0.00     0.106 H 
BRANCH  15  25
ATOM     25  C   UNL     1     -43.773  41.784  26.238  1.00  0.00     0.095 A 
ATOM     26  N   UNL     1     -42.843  43.090  24.860  1.00  0.00    -0.275 N 
ATOM     27  C   UNL     1     -41.985  43.049  25.918  1.00  0.00     0.025 A 
ATOM     28  N   UNL     1     -43.949  42.341  25.032  1.00  0.00    -0.173 NA
ATOM     29  C   UNL     1     -42.565  42.205  26.837  1.00  0.00    -0.016 A 
ATOM     30  H   UNL     1     -41.055  43.599  25.930  1.00  0.00     0.084 H 
ATOM     31  H   UNL     1     -42.161  41.924  27.799  1.00  0.00     0.066 H 
BRANCH  26  32
ATOM     32  C   UNL     1     -42.671  43.830  23.633  1.00  0.00     0.030 C 
ATOM     33  H   UNL     1     -43.118  44.819  23.762  1.00  0.00     0.048 H 
ATOM     34  H   UNL     1     -43.167  43.300  22.815  1.00  0.00     0.048 H 
ATOM     35  H   UNL     1     -41.601  43.915  23.430  1.00  0.00     0.048 H 
ENDBRANCH  26  32
ENDBRANCH  15  25
BRANCH  20  36
ATOM     36  N   UNL     1     -46.793  43.019  25.586  1.00  0.00    -0.383 N 
ATOM     37  H   UNL     1     -46.898  43.908  26.087  1.00  0.00     0.158 HD
ATOM     38  H   UNL     1     -47.254  42.948  24.689  1.00  0.00     0.158 HD
ENDBRANCH  20  36
ENDBRANCH   5  14
BRANCH   9  39
ATOM     39  O   UNL     1     -46.143  35.503  30.356  1.00  0.00    -0.390 OA
ATOM     40  H   UNL     1     -46.769  35.030  30.932  1.00  0.00     0.211 HD
ENDBRANCH   9  39
ENDBRANCH   1   4
BRANCH   1  41
ATOM     41  O   UNL     1     -47.727  34.281  26.925  1.00  0.00    -0.491 OA
BRANCH  41  42
ATOM     42  C   UNL     1     -47.583  33.193  26.110  1.00  0.00     0.121 A 
ATOM     43  C   UNL     1     -46.617  33.283  25.112  1.00  0.00    -0.019 A 
ATOM     44  C   UNL     1     -48.386  32.056  26.191  1.00  0.00     0.007 A 
ATOM     45  C   UNL     1     -46.422  32.215  24.238  1.00  0.00    -0.049 A 
ATOM     46  H   UNL     1     -46.013  34.182  25.019  1.00  0.00     0.066 H 
ATOM     47  C   UNL     1     -48.204  30.971  25.346  1.00  0.00     0.076 A 
ATOM     48  H   UNL     1     -49.186  32.000  26.919  1.00  0.00     0.069 H 
ATOM     49  C   UNL     1     -47.205  31.053  24.359  1.00  0.00     0.001 A 
ATOM     50  H   UNL     1     -45.658  32.291  23.468  1.00  0.00     0.063 H 
ATOM     51  N   UNL     1     -48.975  29.882  25.504  1.00  0.00    -0.231 NA
ATOM     52  C   UNL     1     -47.033  29.949  23.520  1.00  0.00    -0.049 A 
ATOM     53  C   UNL     1     -48.777  28.811  24.711  1.00  0.00     0.126 A 
ATOM     54  C   UNL     1     -47.827  28.819  23.698  1.00  0.00    -0.019 A 
ATOM     55  H   UNL     1     -46.287  29.957  22.731  1.00  0.00     0.063 H 
ATOM     56  H   UNL     1     -47.704  27.960  23.049  1.00  0.00     0.066 H 
BRANCH  53  57
ATOM     57  N   UNL     1     -49.602  27.701  24.953  1.00  0.00    -0.367 N 
ATOM     58  H   UNL     1     -50.551  28.003  24.704  1.00  0.00     0.162 HD
BRANCH  57  59
ATOM     59  C   UNL     1     -49.476  26.950  26.200  1.00  0.00     0.028 C 
ATOM     60  C   UNL     1     -48.132  26.638  26.794  1.00  0.00    -0.031 C 
ATOM     61  C   UNL     1     -48.945  25.544  26.168  1.00  0.00    -0.031 C 
ATOM     62  H   UNL     1     -50.309  27.122  26.880  1.00  0.00     0.053 H 
ATOM     63  H   UNL     1     -48.041  26.655  27.872  1.00  0.00     0.029 H 
ATOM     64  H   UNL     1     -47.250  26.980  26.262  1.00  0.00     0.029 H 
ATOM     65  H   UNL     1     -49.409  24.815  26.820  1.00  0.00     0.029 H 
ATOM     66  H   UNL     1     -48.617  25.149  25.213  1.00  0.00     0.029 H 
ENDBRANCH  57  59
ENDBRANCH  53  57
ENDBRANCH  41  42
ENDBRANCH   1  41
TORSDOF 10
ENDMDL
MODEL 3
REMARK VINA RESULT:      -9.4      1.519      1.977
REMARK SMILES Cn1ccc(-c2cn([C@H]3C[C@H](O)[C@@H](COc4ccc5ccc(NC6CC6)nc5c4)O3)c3ncnc(N)c23)n1
REMARK SMILES IDX 14 1 13 4 9 5 10 6 30 7 11 9 8 14 6 15 7 16 37 17 31 19
REMARK SMILES IDX 35 20 32 21 34 22 33 23 5 25 2 26 3 27 38 28 4 29 1 32 36 36
REMARK SMILES IDX 12 39 15 41 16 42 17 43 29 44 18 45 28 47 19 49 27 51 20 52
REMARK SMILES IDX 22 53 21 54 23 57 24 59 25 60 26 61
REMARK H PARENT 14 2 14 3 9 8 10 10 10 11 11 12 13 13 7 18 33 24 3 30 4 31
REMARK H PARENT 1 33 1 34 1 35 36 37 36 38 12 40 17 46 29 48 18 50 20 55 21 56
REMARK H PARENT 23 58 24 62 25 63 25 64 26 65 26 66
REMARK Flexibility Score: inf
ROOT
ATOM      1  C   UNL     1     -46.181  34.702  27.069  1.00  0.00     0.117 C 
ATOM      2  H   UNL     1     -45.857  33.723  27.438  1.00  0.00     0.073 H 
ATOM      3  H   UNL     1     -45.274  35.289  26.881  1.00  0.00     0.073 H 
ENDROOT
BRANCH   1   4
ATOM      4  C   UNL     1     -47.059  35.438  28.091  1.00  0.00     0.120 C 
ATOM      5  C   UNL     1     -46.934  37.771  28.234  1.00  0.00     0.138 C 
ATOM      6  C   UNL     1     -47.887  37.445  27.092  1.00  0.00     0.022 C 
ATOM      7  O   UNL     1     -46.311  36.543  28.650  1.00  0.00    -0.348 OA
ATOM      8  H   UNL     1     -47.522  38.126  29.091  1.00  0.00     0.085 H 
ATOM      9  C   UNL     1     -48.314  36.044  27.452  1.00  0.00     0.088 C 
ATOM     10  H   UNL     1     -47.400  37.427  26.116  1.00  0.00     0.034 H 
ATOM     11  H   UNL     1     -48.711  38.165  27.045  1.00  0.00     0.034 H 
ATOM     12  H   UNL     1     -48.690  35.466  26.603  1.00  0.00     0.063 H 
ATOM     13  H   UNL     1     -47.310  34.769  28.921  1.00  0.00     0.067 H 
BRANCH   5  14
ATOM     14  N   UNL     1     -45.898  38.761  27.995  1.00  0.00    -0.305 N 
ATOM     15  C   UNL     1     -44.859  40.515  27.073  1.00  0.00     0.033 A 
ATOM     16  C   UNL     1     -45.936  39.658  26.950  1.00  0.00     0.019 A 
ATOM     17  C   UNL     1     -44.137  40.131  28.244  1.00  0.00     0.071 A 
ATOM     18  H   UNL     1     -46.733  39.622  26.219  1.00  0.00     0.083 H 
ATOM     19  C   UNL     1     -44.795  39.023  28.774  1.00  0.00     0.148 A 
ATOM     20  C   UNL     1     -43.009  40.582  28.954  1.00  0.00     0.137 A 
ATOM     21  N   UNL     1     -44.434  38.340  29.876  1.00  0.00    -0.218 NA
ATOM     22  N   UNL     1     -42.598  39.902  30.042  1.00  0.00    -0.219 NA
ATOM     23  C   UNL     1     -43.334  38.856  30.447  1.00  0.00     0.120 A 
ATOM     24  H   UNL     1     -42.992  38.364  31.352  1.00  0.00     0.106 H 
BRANCH  15  25
ATOM     25  C   UNL     1     -44.524  41.618  26.167  1.00  0.00     0.095 A 
ATOM     26  N   UNL     1     -43.433  43.022  25.022  1.00  0.00    -0.275 N 
ATOM     27  C   UNL     1     -44.738  43.301  24.745  1.00  0.00     0.025 A 
ATOM     28  N   UNL     1     -43.270  41.991  25.874  1.00  0.00    -0.173 NA
ATOM     29  C   UNL     1     -45.477  42.400  25.477  1.00  0.00    -0.016 A 
ATOM     30  H   UNL     1     -45.029  44.099  24.077  1.00  0.00     0.084 H 
ATOM     31  H   UNL     1     -46.554  42.329  25.515  1.00  0.00     0.066 H 
BRANCH  26  32
ATOM     32  C   UNL     1     -42.272  43.706  24.505  1.00  0.00     0.030 C 
ATOM     33  H   UNL     1     -41.963  43.209  23.582  1.00  0.00     0.048 H 
ATOM     34  H   UNL     1     -41.466  43.661  25.242  1.00  0.00     0.048 H 
ATOM     35  H   UNL     1     -42.544  44.745  24.310  1.00  0.00     0.048 H 
ENDBRANCH  26  32
ENDBRANCH  15  25
BRANCH  20  36
ATOM     36  N   UNL     1     -42.280  41.716  28.621  1.00  0.00    -0.383 N 
ATOM     37  H   UNL     1     -42.476  42.026  27.664  1.00  0.00     0.158 HD
ATOM     38  H   UNL     1     -41.307  41.609  28.872  1.00  0.00     0.158 HD
ENDBRANCH  20  36
ENDBRANCH   5  14
BRANCH   9  39
ATOM     39  O   UNL     1     -49.365  36.125  28.419  1.00  0.00    -0.390 OA
ATOM     40  H   UNL     1     -49.490  35.236  28.797  1.00  0.00     0.211 HD
ENDBRANCH   9  39
ENDBRANCH   1   4
BRANCH   1  41
ATOM     41  O   UNL     1     -46.859  34.626  25.801  1.00  0.00    -0.491 OA
BRANCH  41  42
ATOM     42  C   UNL     1     -46.905  33.379  25.241  1.00  0.00     0.121 A 
ATOM     43  C   UNL     1     -46.041  33.140  24.177  1.00  0.00    -0.019 A 
ATOM     44  C   UNL     1     -47.804  32.389  25.636  1.00  0.00     0.007 A 
ATOM     45  C   UNL     1     -46.041  31.893  23.553  1.00  0.00    -0.049 A 
ATOM     46  H   UNL     1     -45.365  33.921  23.840  1.00  0.00     0.066 H 
ATOM     47  C   UNL     1     -47.815  31.135  25.044  1.00  0.00     0.076 A 
ATOM     48  H   UNL     1     -48.528  32.585  26.418  1.00  0.00     0.069 H 
ATOM     49  C   UNL     1     -46.917  30.885  23.991  1.00  0.00     0.001 A 
ATOM     50  H   UNL     1     -45.355  31.712  22.729  1.00  0.00     0.063 H 
ATOM     51  N   UNL     1     -48.669  30.203  25.501  1.00  0.00    -0.231 NA
ATOM     52  C   UNL     1     -46.940  29.614  23.410  1.00  0.00    -0.049 A 
ATOM     53  C   UNL     1     -48.658  28.972  24.956  1.00  0.00     0.126 A 
ATOM     54  C   UNL     1     -47.819  28.650  23.897  1.00  0.00    -0.019 A 
ATOM     55  H   UNL     1     -46.280  29.365  22.584  1.00  0.00     0.063 H 
ATOM     56  H   UNL     1     -47.847  27.664  23.449  1.00  0.00     0.066 H 
BRANCH  53  57
ATOM     57  N   UNL     1     -49.560  28.044  25.502  1.00  0.00    -0.367 N 
ATOM     58  H   UNL     1     -50.437  28.559  25.637  1.00  0.00     0.162 HD
BRANCH  57  59
ATOM     59  C   UNL     1     -49.146  27.183  26.608  1.00  0.00     0.028 C 
ATOM     60  C   UNL     1     -47.751  26.634  26.693  1.00  0.00    -0.031 C 
ATOM     61  C   UNL     1     -48.893  25.722  26.355  1.00  0.00    -0.031 C 
ATOM     62  H   UNL     1     -49.663  27.416  27.537  1.00  0.00     0.053 H 
ATOM     63  H   UNL     1     -47.302  26.548  27.674  1.00  0.00     0.029 H 
ATOM     64  H   UNL     1     -47.056  26.888  25.900  1.00  0.00     0.029 H 
ATOM     65  H   UNL     1     -49.224  25.016  27.106  1.00  0.00     0.029 H 
ATOM     66  H   UNL     1     -48.974  25.365  25.335  1.00  0.00     0.029 H 
ENDBRANCH  57  59
ENDBRANCH  53  57
ENDBRANCH  41  42
ENDBRANCH   1  41
TORSDOF 10
ENDMDL
MODEL 4
REMARK VINA RESULT:      -9.2      2.503      3.282
REMARK SMILES Cn1ccc(-c2cn([C@H]3C[C@H](O)[C@@H](COc4ccc5ccc(NC6CC6)nc5c4)O3)c3ncnc(N)c23)n1
REMARK SMILES IDX 14 1 13 4 9 5 10 6 30 7 11 9 8 14 6 15 7 16 37 17 31 19
REMARK SMILES IDX 35 20 32 21 34 22 33 23 5 25 2 26 3 27 38 28 4 29 1 32 36 36
REMARK SMILES IDX 12 39 15 41 16 42 17 43 29 44 18 45 28 47 19 49 27 51 20 52
REMARK SMILES IDX 22 53 21 54 23 57 24 59 25 60 26 61
REMARK H PARENT 14 2 14 3 9 8 10 10 10 11 11 12 13 13 7 18 33 24 3 30 4 31
REMARK H PARENT 1 33 1 34 1 35 36 37 36 38 12 40 17 46 29 48 18 50 20 55 21 56
REMARK H PARENT 23 58 24 62 25 63 25 64 26 65 26 66
REMARK Flexibility Score: inf
ROOT
ATOM      1  C   UNL     1     -46.605  35.131  26.325  1.00  0.00     0.117 C 
ATOM      2  H   UNL     1     -45.856  34.846  25.578  1.00  0.00     0.073 H 
ATOM      3  H   UNL     1     -47.220  35.920  25.877  1.00  0.00     0.073 H 
ENDROOT
BRANCH   1   4
ATOM      4  C   UNL     1     -45.957  35.663  27.612  1.00  0.00     0.120 C 
ATOM      5  C   UNL     1     -46.511  37.809  28.366  1.00  0.00     0.138 C 
ATOM      6  C   UNL     1     -47.602  36.868  28.860  1.00  0.00     0.022 C 
ATOM      7  O   UNL     1     -45.677  37.073  27.454  1.00  0.00    -0.348 OA
ATOM      8  H   UNL     1     -45.872  38.084  29.216  1.00  0.00     0.085 H 
ATOM      9  C   UNL     1     -46.887  35.541  28.826  1.00  0.00     0.088 C 
ATOM     10  H   UNL     1     -48.465  36.823  28.196  1.00  0.00     0.034 H 
ATOM     11  H   UNL     1     -47.956  37.159  29.855  1.00  0.00     0.034 H 
ATOM     12  H   UNL     1     -47.559  34.679  28.771  1.00  0.00     0.063 H 
ATOM     13  H   UNL     1     -44.998  35.164  27.784  1.00  0.00     0.067 H 
BRANCH   5  14
ATOM     14  N   UNL     1     -46.919  39.049  27.728  1.00  0.00    -0.305 N 
ATOM     15  C   UNL     1     -48.234  40.761  27.142  1.00  0.00     0.033 A 
ATOM     16  C   UNL     1     -48.213  39.521  27.750  1.00  0.00     0.019 A 
ATOM     17  C   UNL     1     -46.898  41.064  26.738  1.00  0.00     0.071 A 
ATOM     18  H   UNL     1     -49.004  38.944  28.211  1.00  0.00     0.083 H 
ATOM     19  C   UNL     1     -46.116  39.966  27.092  1.00  0.00     0.148 A 
ATOM     20  C   UNL     1     -46.223  42.136  26.126  1.00  0.00     0.137 A 
ATOM     21  N   UNL     1     -44.793  39.835  26.879  1.00  0.00    -0.218 NA
ATOM     22  N   UNL     1     -44.907  42.026  25.864  1.00  0.00    -0.219 NA
ATOM     23  C   UNL     1     -44.275  40.914  26.270  1.00  0.00     0.120 A 
ATOM     24  H   UNL     1     -43.207  40.885  26.079  1.00  0.00     0.106 H 
BRANCH  15  25
ATOM     25  C   UNL     1     -49.414  41.611  26.953  1.00  0.00     0.095 A 
ATOM     26  N   UNL     1     -50.843  42.907  26.087  1.00  0.00    -0.275 N 
ATOM     27  C   UNL     1     -51.320  42.667  27.341  1.00  0.00     0.025 A 
ATOM     28  N   UNL     1     -49.690  42.265  25.816  1.00  0.00    -0.173 NA
ATOM     29  C   UNL     1     -50.410  41.823  27.932  1.00  0.00    -0.016 A 
ATOM     30  H   UNL     1     -52.237  43.109  27.704  1.00  0.00     0.084 H 
ATOM     31  H   UNL     1     -50.454  41.427  28.937  1.00  0.00     0.066 H 
BRANCH  26  32
ATOM     32  C   UNL     1     -51.441  43.749  25.079  1.00  0.00     0.030 C 
ATOM     33  H   UNL     1     -52.501  43.494  25.001  1.00  0.00     0.048 H 
ATOM     34  H   UNL     1     -50.944  43.578  24.120  1.00  0.00     0.048 H 
ATOM     35  H   UNL     1     -51.317  44.791  25.384  1.00  0.00     0.048 H 
ENDBRANCH  26  32
ENDBRANCH  15  25
BRANCH  20  36
ATOM     36  N   UNL     1     -46.824  43.340  25.779  1.00  0.00    -0.383 N 
ATOM     37  H   UNL     1     -47.716  43.473  26.268  1.00  0.00     0.158 HD
ATOM     38  H   UNL     1     -46.834  43.466  24.777  1.00  0.00     0.158 HD
ENDBRANCH  20  36
ENDBRANCH   5  14
BRANCH   9  39
ATOM     39  O   UNL     1     -46.114  35.411  30.022  1.00  0.00    -0.390 OA
ATOM     40  H   UNL     1     -46.553  34.753  30.590  1.00  0.00     0.211 HD
ENDBRANCH   9  39
ENDBRANCH   1   4
BRANCH   1  41
ATOM     41  O   UNL     1     -47.518  34.063  26.639  1.00  0.00    -0.491 OA
BRANCH  41  42
ATOM     42  C   UNL     1     -47.433  32.968  25.823  1.00  0.00     0.121 A 
ATOM     43  C   UNL     1     -46.428  32.983  24.861  1.00  0.00    -0.019 A 
ATOM     44  C   UNL     1     -48.328  31.900  25.869  1.00  0.00     0.007 A 
ATOM     45  C   UNL     1     -46.288  31.904  23.989  1.00  0.00    -0.049 A 
ATOM     46  H   UNL     1     -45.750  33.831  24.795  1.00  0.00     0.066 H 
ATOM     47  C   UNL     1     -48.204  30.806  25.026  1.00  0.00     0.076 A 
ATOM     48  H   UNL     1     -49.156  31.907  26.568  1.00  0.00     0.069 H 
ATOM     49  C   UNL     1     -47.166  30.809  24.076  1.00  0.00     0.001 A 
ATOM     50  H   UNL     1     -45.493  31.920  23.247  1.00  0.00     0.063 H 
ATOM     51  N   UNL     1     -49.065  29.782  25.151  1.00  0.00    -0.231 NA
ATOM     52  C   UNL     1     -47.054  29.697  23.238  1.00  0.00    -0.049 A 
ATOM     53  C   UNL     1     -48.926  28.702  24.360  1.00  0.00     0.126 A 
ATOM     54  C   UNL     1     -47.943  28.635  23.381  1.00  0.00    -0.019 A 
ATOM     55  H   UNL     1     -46.281  29.646  22.476  1.00  0.00     0.063 H 
ATOM     56  H   UNL     1     -47.866  27.770  22.732  1.00  0.00     0.066 H 
BRANCH  53  57
ATOM     57  N   UNL     1     -49.846  27.661  24.565  1.00  0.00    -0.367 N 
ATOM     58  H   UNL     1     -50.738  28.003  24.191  1.00  0.00     0.162 HD
BRANCH  57  59
ATOM     59  C   UNL     1     -49.913  26.985  25.859  1.00  0.00     0.028 C 
ATOM     60  C   UNL     1     -49.896  25.486  25.961  1.00  0.00    -0.031 C 
ATOM     61  C   UNL     1     -51.161  26.240  26.243  1.00  0.00    -0.031 C 
ATOM     62  H   UNL     1     -49.443  27.558  26.657  1.00  0.00     0.053 H 
ATOM     63  H   UNL     1     -49.369  25.043  26.796  1.00  0.00     0.029 H 
ATOM     64  H   UNL     1     -49.843  24.915  25.041  1.00  0.00     0.029 H 
ATOM     65  H   UNL     1     -51.496  26.313  27.271  1.00  0.00     0.029 H 
ATOM     66  H   UNL     1     -51.961  26.185  25.514  1.00  0.00     0.029 H 
ENDBRANCH  57  59
ENDBRANCH  53  57
ENDBRANCH  41  42
ENDBRANCH   1  41
TORSDOF 10
ENDMDL
MODEL 5
REMARK VINA RESULT:      -8.9      1.659      2.212
REMARK SMILES Cn1ccc(-c2cn([C@H]3C[C@H](O)[C@@H](COc4ccc5ccc(NC6CC6)nc5c4)O3)c3ncnc(N)c23)n1
REMARK SMILES IDX 14 1 13 4 9 5 10 6 30 7 11 9 8 14 6 15 7 16 37 17 31 19
REMARK SMILES IDX 35 20 32 21 34 22 33 23 5 25 2 26 3 27 38 28 4 29 1 32 36 36
REMARK SMILES IDX 12 39 15 41 16 42 17 43 29 44 18 45 28 47 19 49 27 51 20 52
REMARK SMILES IDX 22 53 21 54 23 57 24 59 25 60 26 61
REMARK H PARENT 14 2 14 3 9 8 10 10 10 11 11 12 13 13 7 18 33 24 3 30 4 31
REMARK H PARENT 1 33 1 34 1 35 36 37 36 38 12 40 17 46 29 48 18 50 20 55 21 56
REMARK H PARENT 23 58 24 62 25 63 25 64 26 65 26 66
REMARK Flexibility Score: inf
ROOT
ATOM      1  C   UNL     1     -45.693  35.083  27.218  1.00  0.00     0.117 C 
ATOM      2  H   UNL     1     -45.370  34.068  27.477  1.00  0.00     0.073 H 
ATOM      3  H   UNL     1     -44.790  35.654  26.974  1.00  0.00     0.073 H 
ENDROOT
BRANCH   1   4
ATOM      4  C   UNL     1     -46.425  35.765  28.384  1.00  0.00     0.120 C 
ATOM      5  C   UNL     1     -46.342  38.096  28.576  1.00  0.00     0.138 C 
ATOM      6  C   UNL     1     -47.448  37.771  27.581  1.00  0.00     0.022 C 
ATOM      7  O   UNL     1     -45.631  36.877  28.856  1.00  0.00    -0.348 OA
ATOM      8  H   UNL     1     -46.802  38.410  29.522  1.00  0.00     0.085 H 
ATOM      9  C   UNL     1     -47.779  36.348  27.959  1.00  0.00     0.088 C 
ATOM     10  H   UNL     1     -47.115  37.793  26.543  1.00  0.00     0.034 H 
ATOM     11  H   UNL     1     -48.288  38.466  27.681  1.00  0.00     0.034 H 
ATOM     12  H   UNL     1     -48.263  35.781  27.160  1.00  0.00     0.063 H 
ATOM     13  H   UNL     1     -46.530  35.067  29.221  1.00  0.00     0.067 H 
BRANCH   5  14
ATOM     14  N   UNL     1     -45.380  39.123  28.214  1.00  0.00    -0.305 N 
ATOM     15  C   UNL     1     -44.516  40.891  27.149  1.00  0.00     0.033 A 
ATOM     16  C   UNL     1     -45.557  39.984  27.153  1.00  0.00     0.019 A 
ATOM     17  C   UNL     1     -43.671  40.577  28.258  1.00  0.00     0.071 A 
ATOM     18  H   UNL     1     -46.416  39.889  26.501  1.00  0.00     0.083 H 
ATOM     19  C   UNL     1     -44.224  39.458  28.877  1.00  0.00     0.148 A 
ATOM     20  C   UNL     1     -42.504  41.100  28.846  1.00  0.00     0.137 A 
ATOM     21  N   UNL     1     -43.730  38.828  29.959  1.00  0.00    -0.218 NA
ATOM     22  N   UNL     1     -41.962  40.475  29.908  1.00  0.00    -0.219 NA
ATOM     23  C   UNL     1     -42.608  39.410  30.409  1.00  0.00     0.120 A 
ATOM     24  H   UNL     1     -42.160  38.963  31.292  1.00  0.00     0.106 H 
BRANCH  15  25
ATOM     25  C   UNL     1     -44.319  41.978  26.186  1.00  0.00     0.095 A 
ATOM     26  N   UNL     1     -44.020  43.898  25.350  1.00  0.00    -0.275 N 
ATOM     27  C   UNL     1     -44.045  43.061  24.275  1.00  0.00     0.025 A 
ATOM     28  N   UNL     1     -44.170  43.265  26.530  1.00  0.00    -0.173 NA
ATOM     29  C   UNL     1     -44.237  41.799  24.787  1.00  0.00    -0.016 A 
ATOM     30  H   UNL     1     -43.935  43.420  23.261  1.00  0.00     0.084 H 
ATOM     31  H   UNL     1     -44.321  40.880  24.225  1.00  0.00     0.066 H 
BRANCH  26  32
ATOM     32  C   UNL     1     -43.857  45.332  25.329  1.00  0.00     0.030 C 
ATOM     33  H   UNL     1     -42.893  45.575  25.783  1.00  0.00     0.048 H 
ATOM     34  H   UNL     1     -44.666  45.798  25.898  1.00  0.00     0.048 H 
ATOM     35  H   UNL     1     -43.889  45.666  24.290  1.00  0.00     0.048 H 
ENDBRANCH  26  32
ENDBRANCH  15  25
BRANCH  20  36
ATOM     36  N   UNL     1     -41.864  42.255  28.415  1.00  0.00    -0.383 N 
ATOM     37  H   UNL     1     -41.476  42.144  27.472  1.00  0.00     0.158 HD
ATOM     38  H   UNL     1     -41.236  42.608  29.124  1.00  0.00     0.158 HD
ENDBRANCH  20  36
ENDBRANCH   5  14
BRANCH   9  39
ATOM     39  O   UNL     1     -48.672  36.372  29.076  1.00  0.00    -0.390 OA
ATOM     40  H   UNL     1     -48.589  37.242  29.505  1.00  0.00     0.211 HD
ENDBRANCH   9  39
ENDBRANCH   1   4
BRANCH   1  41
ATOM     41  O   UNL     1     -46.508  35.125  26.032  1.00  0.00    -0.491 OA
BRANCH  41  42
ATOM     42  C   UNL     1     -47.149  33.956  25.726  1.00  0.00     0.121 A 
ATOM     43  C   UNL     1     -48.461  33.828  26.169  1.00  0.00    -0.019 A 
ATOM     44  C   UNL     1     -46.537  32.891  25.066  1.00  0.00     0.007 A 
ATOM     45  C   UNL     1     -49.172  32.660  25.901  1.00  0.00    -0.049 A 
ATOM     46  H   UNL     1     -48.932  34.640  26.718  1.00  0.00     0.066 H 
ATOM     47  C   UNL     1     -47.224  31.723  24.771  1.00  0.00     0.076 A 
ATOM     48  H   UNL     1     -45.495  32.951  24.775  1.00  0.00     0.069 H 
ATOM     49  C   UNL     1     -48.562  31.610  25.192  1.00  0.00     0.001 A 
ATOM     50  H   UNL     1     -50.201  32.573  26.242  1.00  0.00     0.063 H 
ATOM     51  N   UNL     1     -46.597  30.750  24.087  1.00  0.00    -0.231 NA
ATOM     52  C   UNL     1     -49.239  30.428  24.881  1.00  0.00    -0.049 A 
ATOM     53  C   UNL     1     -47.271  29.630  23.765  1.00  0.00     0.126 A 
ATOM     54  C   UNL     1     -48.586  29.429  24.163  1.00  0.00    -0.019 A 
ATOM     55  H   UNL     1     -50.269  30.276  25.190  1.00  0.00     0.063 H 
ATOM     56  H   UNL     1     -49.103  28.508  23.921  1.00  0.00     0.066 H 
BRANCH  53  57
ATOM     57  N   UNL     1     -46.559  28.670  23.028  1.00  0.00    -0.367 N 
ATOM     58  H   UNL     1     -47.263  28.168  22.476  1.00  0.00     0.162 HD
BRANCH  57  59
ATOM     59  C   UNL     1     -45.551  27.840  23.685  1.00  0.00     0.028 C 
ATOM     60  C   UNL     1     -45.296  26.425  23.248  1.00  0.00    -0.031 C 
ATOM     61  C   UNL     1     -45.986  26.692  24.553  1.00  0.00    -0.031 C 
ATOM     62  H   UNL     1     -44.709  28.420  24.060  1.00  0.00     0.053 H 
ATOM     63  H   UNL     1     -44.276  26.066  23.275  1.00  0.00     0.029 H 
ATOM     64  H   UNL     1     -45.892  26.030  22.433  1.00  0.00     0.029 H 
ATOM     65  H   UNL     1     -45.436  26.516  25.469  1.00  0.00     0.029 H 
ATOM     66  H   UNL     1     -47.048  26.483  24.619  1.00  0.00     0.029 H 
ENDBRANCH  57  59
ENDBRANCH  53  57
ENDBRANCH  41  42
ENDBRANCH   1  41
TORSDOF 10
ENDMDL
MODEL 6
REMARK VINA RESULT:      -8.8      4.759      7.613
REMARK SMILES Cn1ccc(-c2cn([C@H]3C[C@H](O)[C@@H](COc4ccc5ccc(NC6CC6)nc5c4)O3)c3ncnc(N)c23)n1
REMARK SMILES IDX 14 1 13 4 9 5 10 6 30 7 11 9 8 14 6 15 7 16 37 17 31 19
REMARK SMILES IDX 35 20 32 21 34 22 33 23 5 25 2 26 3 27 38 28 4 29 1 32 36 36
REMARK SMILES IDX 12 39 15 41 16 42 17 43 29 44 18 45 28 47 19 49 27 51 20 52
REMARK SMILES IDX 22 53 21 54 23 57 24 59 25 60 26 61
REMARK H PARENT 14 2 14 3 9 8 10 10 10 11 11 12 13 13 7 18 33 24 3 30 4 31
REMARK H PARENT 1 33 1 34 1 35 36 37 36 38 12 40 17 46 29 48 18 50 20 55 21 56
REMARK H PARENT 23 58 24 62 25 63 25 64 26 65 26 66
REMARK Flexibility Score: inf
ROOT
ATOM      1  C   UNL     1     -47.400  36.361  27.275  1.00  0.00     0.117 C 
ATOM      2  H   UNL     1     -47.254  35.783  26.355  1.00  0.00     0.073 H 
ATOM      3  H   UNL     1     -47.380  37.420  26.995  1.00  0.00     0.073 H 
ENDROOT
BRANCH   1   4
ATOM      4  C   UNL     1     -46.294  36.087  28.304  1.00  0.00     0.120 C 
ATOM      5  C   UNL     1     -44.985  37.868  29.075  1.00  0.00     0.138 C 
ATOM      6  C   UNL     1     -46.267  37.868  29.898  1.00  0.00     0.022 C 
ATOM      7  O   UNL     1     -45.151  36.921  28.005  1.00  0.00    -0.348 OA
ATOM      8  H   UNL     1     -44.166  37.488  29.700  1.00  0.00     0.085 H 
ATOM      9  C   UNL     1     -46.726  36.441  29.732  1.00  0.00     0.088 C 
ATOM     10  H   UNL     1     -47.033  38.535  29.501  1.00  0.00     0.034 H 
ATOM     11  H   UNL     1     -46.072  38.157  30.936  1.00  0.00     0.034 H 
ATOM     12  H   UNL     1     -47.796  36.299  29.908  1.00  0.00     0.063 H 
ATOM     13  H   UNL     1     -45.959  35.047  28.228  1.00  0.00     0.067 H 
BRANCH   5  14
ATOM     14  N   UNL     1     -44.536  39.131  28.514  1.00  0.00    -0.305 N 
ATOM     15  C   UNL     1     -44.548  40.975  27.247  1.00  0.00     0.033 A 
ATOM     16  C   UNL     1     -45.166  39.758  27.462  1.00  0.00     0.019 A 
ATOM     17  C   UNL     1     -43.501  41.100  28.211  1.00  0.00     0.071 A 
ATOM     18  H   UNL     1     -46.010  39.295  26.967  1.00  0.00     0.083 H 
ATOM     19  C   UNL     1     -43.506  39.925  28.961  1.00  0.00     0.148 A 
ATOM     20  C   UNL     1     -42.543  42.065  28.574  1.00  0.00     0.137 A 
ATOM     21  N   UNL     1     -42.668  39.627  29.971  1.00  0.00    -0.218 NA
ATOM     22  N   UNL     1     -41.665  41.787  29.556  1.00  0.00    -0.219 NA
ATOM     23  C   UNL     1     -41.791  40.617  30.203  1.00  0.00     0.120 A 
ATOM     24  H   UNL     1     -41.092  40.453  31.016  1.00  0.00     0.106 H 
BRANCH  15  25
ATOM     25  C   UNL     1     -44.906  41.957  26.219  1.00  0.00     0.095 A 
ATOM     26  N   UNL     1     -45.895  43.505  25.172  1.00  0.00    -0.275 N 
ATOM     27  C   UNL     1     -44.856  43.159  24.361  1.00  0.00     0.025 A 
ATOM     28  N   UNL     1     -45.943  42.800  26.319  1.00  0.00    -0.173 NA
ATOM     29  C   UNL     1     -44.190  42.150  25.017  1.00  0.00    -0.016 A 
ATOM     30  H   UNL     1     -44.684  43.636  23.407  1.00  0.00     0.084 H 
ATOM     31  H   UNL     1     -43.316  41.620  24.667  1.00  0.00     0.066 H 
BRANCH  26  32
ATOM     32  C   UNL     1     -46.897  44.512  24.915  1.00  0.00     0.030 C 
ATOM     33  H   UNL     1     -47.880  44.035  24.950  1.00  0.00     0.048 H 
ATOM     34  H   UNL     1     -46.729  44.949  23.927  1.00  0.00     0.048 H 
ATOM     35  H   UNL     1     -46.815  45.283  25.684  1.00  0.00     0.048 H 
ENDBRANCH  26  32
ENDBRANCH  15  25
BRANCH  20  36
ATOM     36  N   UNL     1     -42.445  43.323  27.994  1.00  0.00    -0.383 N 
ATOM     37  H   UNL     1     -42.347  44.060  28.700  1.00  0.00     0.158 HD
ATOM     38  H   UNL     1     -43.162  43.458  27.295  1.00  0.00     0.158 HD
ENDBRANCH  20  36
ENDBRANCH   5  14
BRANCH   9  39
ATOM     39  O   UNL     1     -46.021  35.627  30.672  1.00  0.00    -0.390 OA
ATOM     40  H   UNL     1     -46.591  34.869  30.896  1.00  0.00     0.211 HD
ENDBRANCH   9  39
ENDBRANCH   1   4
BRANCH   1  41
ATOM     41  O   UNL     1     -48.693  36.145  27.872  1.00  0.00    -0.491 OA
BRANCH  41  42
ATOM     42  C   UNL     1     -49.448  37.273  28.043  1.00  0.00     0.121 A 
ATOM     43  C   UNL     1     -50.806  37.084  28.282  1.00  0.00    -0.019 A 
ATOM     44  C   UNL     1     -48.942  38.566  27.924  1.00  0.00     0.007 A 
ATOM     45  C   UNL     1     -51.638  38.189  28.457  1.00  0.00    -0.049 A 
ATOM     46  H   UNL     1     -51.214  36.079  28.338  1.00  0.00     0.066 H 
ATOM     47  C   UNL     1     -49.742  39.684  28.109  1.00  0.00     0.076 A 
ATOM     48  H   UNL     1     -47.900  38.727  27.672  1.00  0.00     0.069 H 
ATOM     49  C   UNL     1     -51.108  39.490  28.383  1.00  0.00     0.001 A 
ATOM     50  H   UNL     1     -52.695  38.032  28.653  1.00  0.00     0.063 H 
ATOM     51  N   UNL     1     -49.187  40.906  28.033  1.00  0.00    -0.231 NA
ATOM     52  C   UNL     1     -51.897  40.627  28.571  1.00  0.00    -0.049 A 
ATOM     53  C   UNL     1     -49.952  41.993  28.249  1.00  0.00     0.126 A 
ATOM     54  C   UNL     1     -51.313  41.889  28.502  1.00  0.00    -0.019 A 
ATOM     55  H   UNL     1     -52.961  40.542  28.772  1.00  0.00     0.063 H 
ATOM     56  H   UNL     1     -51.919  42.777  28.642  1.00  0.00     0.066 H 
BRANCH  53  57
ATOM     57  N   UNL     1     -49.298  43.234  28.178  1.00  0.00    -0.367 N 
ATOM     58  H   UNL     1     -48.655  43.253  28.978  1.00  0.00     0.162 HD
BRANCH  57  59
ATOM     59  C   UNL     1     -50.065  44.455  27.944  1.00  0.00     0.028 C 
ATOM     60  C   UNL     1     -50.286  44.987  26.556  1.00  0.00    -0.031 C 
ATOM     61  C   UNL     1     -49.355  45.701  27.491  1.00  0.00    -0.031 C 
ATOM     62  H   UNL     1     -50.851  44.605  28.682  1.00  0.00     0.053 H 
ATOM     63  H   UNL     1     -51.241  45.446  26.339  1.00  0.00     0.029 H 
ATOM     64  H   UNL     1     -49.849  44.441  25.728  1.00  0.00     0.029 H 
ATOM     65  H   UNL     1     -49.676  46.646  27.911  1.00  0.00     0.029 H 
ATOM     66  H   UNL     1     -48.290  45.634  27.298  1.00  0.00     0.029 H 
ENDBRANCH  57  59
ENDBRANCH  53  57
ENDBRANCH  41  42
ENDBRANCH   1  41
TORSDOF 10
ENDMDL
MODEL 7
REMARK VINA RESULT:      -8.6      2.800      5.097
REMARK SMILES Cn1ccc(-c2cn([C@H]3C[C@H](O)[C@@H](COc4ccc5ccc(NC6CC6)nc5c4)O3)c3ncnc(N)c23)n1
REMARK SMILES IDX 14 1 13 4 9 5 10 6 30 7 11 9 8 14 6 15 7 16 37 17 31 19
REMARK SMILES IDX 35 20 32 21 34 22 33 23 5 25 2 26 3 27 38 28 4 29 1 32 36 36
REMARK SMILES IDX 12 39 15 41 16 42 17 43 29 44 18 45 28 47 19 49 27 51 20 52
REMARK SMILES IDX 22 53 21 54 23 57 24 59 25 60 26 61
REMARK H PARENT 14 2 14 3 9 8 10 10 10 11 11 12 13 13 7 18 33 24 3 30 4 31
REMARK H PARENT 1 33 1 34 1 35 36 37 36 38 12 40 17 46 29 48 18 50 20 55 21 56
REMARK H PARENT 23 58 24 62 25 63 25 64 26 65 26 66
REMARK Flexibility Score: inf
ROOT
ATOM      1  C   UNL     1     -46.436  33.138  24.181  1.00  0.00     0.117 C 
ATOM      2  H   UNL     1     -45.690  33.937  24.116  1.00  0.00     0.073 H 
ATOM      3  H   UNL     1     -47.376  33.544  23.791  1.00  0.00     0.073 H 
ENDROOT
BRANCH   1   4
ATOM      4  C   UNL     1     -46.648  32.668  25.627  1.00  0.00     0.120 C 
ATOM      5  C   UNL     1     -47.513  34.170  27.200  1.00  0.00     0.138 C 
ATOM      6  C   UNL     1     -48.699  33.588  26.442  1.00  0.00     0.022 C 
ATOM      7  O   UNL     1     -46.313  33.747  26.530  1.00  0.00    -0.348 OA
ATOM      8  H   UNL     1     -47.482  33.723  28.202  1.00  0.00     0.085 H 
ATOM      9  C   UNL     1     -48.111  32.304  25.913  1.00  0.00     0.088 C 
ATOM     10  H   UNL     1     -49.018  34.204  25.601  1.00  0.00     0.034 H 
ATOM     11  H   UNL     1     -49.560  33.445  27.102  1.00  0.00     0.034 H 
ATOM     12  H   UNL     1     -48.636  31.905  25.040  1.00  0.00     0.063 H 
ATOM     13  H   UNL     1     -45.972  31.838  25.856  1.00  0.00     0.067 H 
BRANCH   5  14
ATOM     14  N   UNL     1     -47.462  35.611  27.381  1.00  0.00    -0.305 N 
ATOM     15  C   UNL     1     -46.646  37.694  27.334  1.00  0.00     0.033 A 
ATOM     16  C   UNL     1     -46.325  36.360  27.171  1.00  0.00     0.019 A 
ATOM     17  C   UNL     1     -48.037  37.765  27.649  1.00  0.00     0.071 A 
ATOM     18  H   UNL     1     -45.390  35.883  26.908  1.00  0.00     0.083 H 
ATOM     19  C   UNL     1     -48.503  36.452  27.697  1.00  0.00     0.148 A 
ATOM     20  C   UNL     1     -48.991  38.771  27.888  1.00  0.00     0.137 A 
ATOM     21  N   UNL     1     -49.763  36.069  27.975  1.00  0.00    -0.218 NA
ATOM     22  N   UNL     1     -50.253  38.424  28.204  1.00  0.00    -0.219 NA
ATOM     23  C   UNL     1     -50.566  37.119  28.206  1.00  0.00     0.120 A 
ATOM     24  H   UNL     1     -51.604  36.887  28.422  1.00  0.00     0.106 H 
BRANCH  15  25
ATOM     25  C   UNL     1     -45.725  38.827  27.201  1.00  0.00     0.095 A 
ATOM     26  N   UNL     1     -44.769  40.570  26.481  1.00  0.00    -0.275 N 
ATOM     27  C   UNL     1     -44.086  40.255  27.617  1.00  0.00     0.025 A 
ATOM     28  N   UNL     1     -45.783  39.726  26.209  1.00  0.00    -0.173 NA
ATOM     29  C   UNL     1     -44.687  39.121  28.113  1.00  0.00    -0.016 A 
ATOM     30  H   UNL     1     -43.247  40.840  27.968  1.00  0.00     0.084 H 
ATOM     31  H   UNL     1     -44.404  38.577  29.002  1.00  0.00     0.066 H 
BRANCH  26  32
ATOM     32  C   UNL     1     -44.506  41.675  25.590  1.00  0.00     0.030 C 
ATOM     33  H   UNL     1     -43.430  41.716  25.401  1.00  0.00     0.048 H 
ATOM     34  H   UNL     1     -44.840  42.605  26.056  1.00  0.00     0.048 H 
ATOM     35  H   UNL     1     -45.054  41.504  24.660  1.00  0.00     0.048 H 
ENDBRANCH  26  32
ENDBRANCH  15  25
BRANCH  20  36
ATOM     36  N   UNL     1     -48.727  40.132  27.801  1.00  0.00    -0.383 N 
ATOM     37  H   UNL     1     -47.807  40.315  27.386  1.00  0.00     0.158 HD
ATOM     38  H   UNL     1     -48.930  40.598  28.675  1.00  0.00     0.158 HD
ENDBRANCH  20  36
ENDBRANCH   5  14
BRANCH   9  39
ATOM     39  O   UNL     1     -48.176  31.316  26.945  1.00  0.00    -0.390 OA
ATOM     40  H   UNL     1     -48.307  31.779  27.792  1.00  0.00     0.211 HD
ENDBRANCH   9  39
ENDBRANCH   1   4
BRANCH   1  41
ATOM     41  O   UNL     1     -46.124  32.012  23.338  1.00  0.00    -0.491 OA
BRANCH  41  42
ATOM     42  C   UNL     1     -47.103  31.060  23.257  1.00  0.00     0.121 A 
ATOM     43  C   UNL     1     -48.163  31.326  22.396  1.00  0.00    -0.019 A 
ATOM     44  C   UNL     1     -47.115  29.898  24.028  1.00  0.00     0.007 A 
ATOM     45  C   UNL     1     -49.200  30.403  22.270  1.00  0.00    -0.049 A 
ATOM     46  H   UNL     1     -48.178  32.247  21.820  1.00  0.00     0.066 H 
ATOM     47  C   UNL     1     -48.124  28.955  23.912  1.00  0.00     0.076 A 
ATOM     48  H   UNL     1     -46.330  29.711  24.751  1.00  0.00     0.069 H 
ATOM     49  C   UNL     1     -49.179  29.211  23.017  1.00  0.00     0.001 A 
ATOM     50  H   UNL     1     -50.020  30.614  21.588  1.00  0.00     0.063 H 
ATOM     51  N   UNL     1     -48.057  27.830  24.645  1.00  0.00    -0.231 NA
ATOM     52  C   UNL     1     -50.185  28.247  22.910  1.00  0.00    -0.049 A 
ATOM     53  C   UNL     1     -49.015  26.894  24.508  1.00  0.00     0.126 A 
ATOM     54  C   UNL     1     -50.102  27.079  23.663  1.00  0.00    -0.019 A 
ATOM     55  H   UNL     1     -51.032  28.394  22.246  1.00  0.00     0.063 H 
ATOM     56  H   UNL     1     -50.880  26.328  23.590  1.00  0.00     0.066 H 
BRANCH  53  57
ATOM     57  N   UNL     1     -48.863  25.734  25.286  1.00  0.00    -0.367 N 
ATOM     58  H   UNL     1     -49.784  25.281  25.289  1.00  0.00     0.162 HD
BRANCH  57  59
ATOM     59  C   UNL     1     -48.178  25.800  26.575  1.00  0.00     0.028 C 
ATOM     60  C   UNL     1     -46.686  25.949  26.662  1.00  0.00    -0.031 C 
ATOM     61  C   UNL     1     -47.329  24.643  27.023  1.00  0.00    -0.031 C 
ATOM     62  H   UNL     1     -48.786  26.265  27.350  1.00  0.00     0.053 H 
ATOM     63  H   UNL     1     -46.286  26.559  27.461  1.00  0.00     0.029 H 
ATOM     64  H   UNL     1     -46.125  25.997  25.735  1.00  0.00     0.029 H 
ATOM     65  H   UNL     1     -47.368  24.364  28.068  1.00  0.00     0.029 H 
ATOM     66  H   UNL     1     -47.208  23.810  26.339  1.00  0.00     0.029 H 
ENDBRANCH  57  59
ENDBRANCH  53  57
ENDBRANCH  41  42
ENDBRANCH   1  41
TORSDOF 10
ENDMDL
