MODEL 1
REMARK VINA RESULT:     -10.4      0.000      0.000
REMARK SMILES CN(C)c1ccc2ccc(CC[C@H]3C[C@@H](n4ccc5c(N)ncnc54)[C@H](O)[C@@H]3O)cc2n1
REMARK SMILES IDX 11 1 10 4 4 5 5 6 32 7 6 8 31 10 7 11 30 13 8 14 9 16 2 19
REMARK SMILES IDX 1 20 3 24 12 28 13 31 14 32 28 33 15 35 26 38 29 42 16 44
REMARK SMILES IDX 17 45 25 46 18 47 19 49 24 50 20 52 23 53 22 54 21 56 27 59
REMARK H PARENT 11 2 11 3 5 9 6 12 30 15 8 17 9 18 1 21 1 22 1 23 3 25 3 26
REMARK H PARENT 3 27 12 29 12 30 13 34 14 36 14 37 28 39 15 40 26 41 29 43
REMARK H PARENT 17 48 18 51 23 55 21 57 21 58 27 60
REMARK Flexibility Score: inf
ROOT
ATOM      1  C   UNL     1     -46.098  35.257  27.077  1.00  0.00    -0.027 C 
ATOM      2  H   UNL     1     -45.058  34.930  26.942  1.00  0.00     0.032 H 
ATOM      3  H   UNL     1     -46.181  36.212  26.543  1.00  0.00     0.032 H 
ENDROOT
BRANCH   1   4
ATOM      4  C   UNL     1     -46.981  34.218  26.431  1.00  0.00    -0.046 A 
ATOM      5  C   UNL     1     -47.370  30.328  23.678  1.00  0.00     0.128 A 
ATOM      6  C   UNL     1     -48.753  30.301  23.852  1.00  0.00    -0.019 A 
ATOM      7  N   UNL     1     -46.619  31.283  24.271  1.00  0.00    -0.231 NA
ATOM      8  C   UNL     1     -49.373  31.280  24.625  1.00  0.00    -0.049 A 
ATOM      9  H   UNL     1     -49.349  29.509  23.413  1.00  0.00     0.066 H 
ATOM     10  C   UNL     1     -47.212  32.230  25.020  1.00  0.00     0.073 A 
ATOM     11  C   UNL     1     -48.601  32.273  25.225  1.00  0.00     0.000 A 
ATOM     12  H   UNL     1     -50.452  31.250  24.758  1.00  0.00     0.063 H 
ATOM     13  C   UNL     1     -46.431  33.210  25.622  1.00  0.00    -0.033 A 
ATOM     14  C   UNL     1     -49.173  33.286  26.013  1.00  0.00    -0.053 A 
ATOM     15  H   UNL     1     -45.357  33.177  25.450  1.00  0.00     0.065 H 
ATOM     16  C   UNL     1     -48.366  34.255  26.607  1.00  0.00    -0.058 A 
ATOM     17  H   UNL     1     -50.249  33.323  26.168  1.00  0.00     0.063 H 
ATOM     18  H   UNL     1     -48.828  35.031  27.214  1.00  0.00     0.063 H 
BRANCH   5  19
ATOM     19  N   UNL     1     -46.749  29.326  22.899  1.00  0.00    -0.363 N 
BRANCH  19  20
ATOM     20  C   UNL     1     -45.541  29.808  22.230  1.00  0.00     0.008 C 
ATOM     21  H   UNL     1     -44.663  29.214  22.509  1.00  0.00     0.046 H 
ATOM     22  H   UNL     1     -45.342  30.862  22.450  1.00  0.00     0.046 H 
ATOM     23  H   UNL     1     -45.662  29.738  21.142  1.00  0.00     0.046 H 
ENDBRANCH  19  20
BRANCH  19  24
ATOM     24  C   UNL     1     -46.559  28.077  23.640  1.00  0.00     0.008 C 
ATOM     25  H   UNL     1     -45.514  27.932  23.939  1.00  0.00     0.046 H 
ATOM     26  H   UNL     1     -47.203  28.038  24.527  1.00  0.00     0.046 H 
ATOM     27  H   UNL     1     -46.846  27.227  23.010  1.00  0.00     0.046 H 
ENDBRANCH  19  24
ENDBRANCH   5  19
ENDBRANCH   1   4
BRANCH   1  28
ATOM     28  C   UNL     1     -46.347  35.495  28.574  1.00  0.00    -0.044 C 
ATOM     29  H   UNL     1     -45.491  35.069  29.111  1.00  0.00     0.027 H 
ATOM     30  H   UNL     1     -47.227  34.937  28.916  1.00  0.00     0.027 H 
BRANCH  28  31
ATOM     31  C   UNL     1     -46.473  36.973  28.978  1.00  0.00    -0.010 C 
ATOM     32  C   UNL     1     -45.166  37.769  28.959  1.00  0.00    -0.024 C 
ATOM     33  C   UNL     1     -47.337  37.760  27.988  1.00  0.00     0.085 C 
ATOM     34  H   UNL     1     -46.927  37.021  29.977  1.00  0.00     0.033 H 
ATOM     35  C   UNL     1     -45.584  39.245  28.805  1.00  0.00     0.064 C 
ATOM     36  H   UNL     1     -44.597  37.636  29.885  1.00  0.00     0.029 H 
ATOM     37  H   UNL     1     -44.525  37.441  28.132  1.00  0.00     0.029 H 
ATOM     38  C   UNL     1     -47.050  39.229  28.326  1.00  0.00     0.101 C 
ATOM     39  H   UNL     1     -47.036  37.542  26.956  1.00  0.00     0.063 H 
ATOM     40  H   UNL     1     -45.540  39.722  29.791  1.00  0.00     0.056 H 
ATOM     41  H   UNL     1     -47.247  39.876  27.466  1.00  0.00     0.065 H 
BRANCH  33  42
ATOM     42  O   UNL     1     -48.712  37.437  28.142  1.00  0.00    -0.390 OA
ATOM     43  H   UNL     1     -49.195  38.288  28.166  1.00  0.00     0.211 HD
ENDBRANCH  33  42
BRANCH  35  44
ATOM     44  N   UNL     1     -44.694  39.988  27.925  1.00  0.00    -0.327 N 
ATOM     45  C   UNL     1     -44.921  40.271  26.598  1.00  0.00     0.007 A 
ATOM     46  C   UNL     1     -43.477  40.504  28.302  1.00  0.00     0.145 A 
ATOM     47  C   UNL     1     -43.838  40.984  26.125  1.00  0.00    -0.031 A 
ATOM     48  H   UNL     1     -45.822  39.948  26.094  1.00  0.00     0.082 H 
ATOM     49  C   UNL     1     -42.916  41.132  27.198  1.00  0.00     0.061 A 
ATOM     50  N   UNL     1     -42.930  40.412  29.526  1.00  0.00    -0.218 NA
ATOM     51  H   UNL     1     -43.721  41.357  25.118  1.00  0.00     0.065 H 
ATOM     52  C   UNL     1     -41.660  41.726  27.379  1.00  0.00     0.136 A 
ATOM     53  C   UNL     1     -41.734  41.022  29.580  1.00  0.00     0.120 A 
ATOM     54  N   UNL     1     -41.075  41.657  28.591  1.00  0.00    -0.219 NA
ATOM     55  H   UNL     1     -41.230  40.997  30.541  1.00  0.00     0.106 H 
BRANCH  52  56
ATOM     56  N   UNL     1     -40.961  42.373  26.370  1.00  0.00    -0.383 N 
ATOM     57  H   UNL     1     -40.688  43.302  26.670  1.00  0.00     0.158 HD
ATOM     58  H   UNL     1     -40.241  41.814  25.935  1.00  0.00     0.158 HD
ENDBRANCH  52  56
ENDBRANCH  35  44
BRANCH  38  59
ATOM     59  O   UNL     1     -47.956  39.654  29.361  1.00  0.00    -0.388 OA
ATOM     60  H   UNL     1     -47.473  39.691  30.206  1.00  0.00     0.211 HD
ENDBRANCH  38  59
ENDBRANCH  28  31
ENDBRANCH   1  28
TORSDOF 10
ENDMDL
MODEL 2
REMARK VINA RESULT:      -9.5      2.142     10.374
REMARK SMILES CN(C)c1ccc2ccc(CC[C@H]3C[C@@H](n4ccc5c(N)ncnc54)[C@H](O)[C@@H]3O)cc2n1
REMARK SMILES IDX 11 1 10 4 4 5 5 6 32 7 6 8 31 10 7 11 30 13 8 14 9 16 2 19
REMARK SMILES IDX 1 20 3 24 12 28 13 31 14 32 28 33 15 35 26 38 29 42 16 44
REMARK SMILES IDX 17 45 25 46 18 47 19 49 24 50 20 52 23 53 22 54 21 56 27 59
REMARK H PARENT 11 2 11 3 5 9 6 12 30 15 8 17 9 18 1 21 1 22 1 23 3 25 3 26
REMARK H PARENT 3 27 12 29 12 30 13 34 14 36 14 37 28 39 15 40 26 41 29 43
REMARK H PARENT 17 48 18 51 23 55 21 57 21 58 27 60
REMARK Flexibility Score: inf
ROOT
ATOM      1  C   UNL     1     -47.530  37.063  28.000  1.00  0.00    -0.027 C 
ATOM      2  H   UNL     1     -47.550  36.405  28.880  1.00  0.00     0.032 H 
ATOM      3  H   UNL     1     -48.471  37.626  28.028  1.00  0.00     0.032 H 
ENDROOT
BRANCH   1   4
ATOM      4  C   UNL     1     -46.358  37.997  28.167  1.00  0.00    -0.046 A 
ATOM      5  C   UNL     1     -43.743  41.618  26.460  1.00  0.00     0.128 A 
ATOM      6  C   UNL     1     -42.909  41.587  27.576  1.00  0.00    -0.019 A 
ATOM      7  N   UNL     1     -44.779  40.757  26.349  1.00  0.00    -0.231 NA
ATOM      8  C   UNL     1     -43.127  40.646  28.579  1.00  0.00    -0.049 A 
ATOM      9  H   UNL     1     -42.106  42.308  27.685  1.00  0.00     0.066 H 
ATOM     10  C   UNL     1     -44.996  39.845  27.315  1.00  0.00     0.073 A 
ATOM     11  C   UNL     1     -44.187  39.748  28.459  1.00  0.00     0.000 A 
ATOM     12  H   UNL     1     -42.474  40.631  29.448  1.00  0.00     0.063 H 
ATOM     13  C   UNL     1     -46.061  38.961  27.190  1.00  0.00    -0.033 A 
ATOM     14  C   UNL     1     -44.452  38.776  29.438  1.00  0.00    -0.053 A 
ATOM     15  H   UNL     1     -46.677  39.035  26.295  1.00  0.00     0.065 H 
ATOM     16  C   UNL     1     -45.529  37.903  29.289  1.00  0.00    -0.058 A 
ATOM     17  H   UNL     1     -43.823  38.696  30.322  1.00  0.00     0.063 H 
ATOM     18  H   UNL     1     -45.719  37.157  30.058  1.00  0.00     0.063 H 
BRANCH   5  19
ATOM     19  N   UNL     1     -43.519  42.583  25.452  1.00  0.00    -0.363 N 
BRANCH  19  20
ATOM     20  C   UNL     1     -44.628  43.529  25.329  1.00  0.00     0.008 C 
ATOM     21  H   UNL     1     -44.352  44.394  24.716  1.00  0.00     0.046 H 
ATOM     22  H   UNL     1     -44.978  43.881  26.306  1.00  0.00     0.046 H 
ATOM     23  H   UNL     1     -45.487  43.040  24.853  1.00  0.00     0.046 H 
ENDBRANCH  19  20
BRANCH  19  24
ATOM     24  C   UNL     1     -42.206  43.220  25.566  1.00  0.00     0.008 C 
ATOM     25  H   UNL     1     -42.072  43.715  26.535  1.00  0.00     0.046 H 
ATOM     26  H   UNL     1     -41.396  42.496  25.410  1.00  0.00     0.046 H 
ATOM     27  H   UNL     1     -42.096  43.981  24.785  1.00  0.00     0.046 H 
ENDBRANCH  19  24
ENDBRANCH   5  19
ENDBRANCH   1   4
BRANCH   1  28
ATOM     28  C   UNL     1     -47.503  36.191  26.736  1.00  0.00    -0.044 C 
ATOM     29  H   UNL     1     -46.615  36.488  26.163  1.00  0.00     0.027 H 
ATOM     30  H   UNL     1     -48.364  36.413  26.093  1.00  0.00     0.027 H 
BRANCH  28  31
ATOM     31  C   UNL     1     -47.417  34.679  26.997  1.00  0.00    -0.010 C 
ATOM     32  C   UNL     1     -48.175  33.800  26.001  1.00  0.00    -0.024 C 
ATOM     33  C   UNL     1     -45.982  34.161  26.850  1.00  0.00     0.085 C 
ATOM     34  H   UNL     1     -47.772  34.483  28.018  1.00  0.00     0.033 H 
ATOM     35  C   UNL     1     -47.499  32.415  26.075  1.00  0.00     0.064 C 
ATOM     36  H   UNL     1     -49.234  33.713  26.261  1.00  0.00     0.029 H 
ATOM     37  H   UNL     1     -48.120  34.223  24.990  1.00  0.00     0.029 H 
ATOM     38  C   UNL     1     -46.142  32.637  26.774  1.00  0.00     0.101 C 
ATOM     39  H   UNL     1     -45.527  34.541  25.927  1.00  0.00     0.063 H 
ATOM     40  H   UNL     1     -48.117  31.762  26.702  1.00  0.00     0.056 H 
ATOM     41  H   UNL     1     -45.294  32.177  26.258  1.00  0.00     0.065 H 
BRANCH  33  42
ATOM     42  O   UNL     1     -45.181  34.557  27.953  1.00  0.00    -0.390 OA
ATOM     43  H   UNL     1     -44.834  33.734  28.354  1.00  0.00     0.211 HD
ENDBRANCH  33  42
BRANCH  35  44
ATOM     44  N   UNL     1     -47.384  31.780  24.771  1.00  0.00    -0.327 N 
ATOM     45  C   UNL     1     -46.252  31.735  23.990  1.00  0.00     0.007 A 
ATOM     46  C   UNL     1     -48.413  31.140  24.122  1.00  0.00     0.145 A 
ATOM     47  C   UNL     1     -46.560  31.051  22.833  1.00  0.00    -0.031 A 
ATOM     48  H   UNL     1     -45.323  32.189  24.310  1.00  0.00     0.082 H 
ATOM     49  C   UNL     1     -47.929  30.674  22.906  1.00  0.00     0.061 A 
ATOM     50  N   UNL     1     -49.665  30.995  24.585  1.00  0.00    -0.218 NA
ATOM     51  H   UNL     1     -45.876  30.845  22.021  1.00  0.00     0.065 H 
ATOM     52  C   UNL     1     -48.836  29.988  22.087  1.00  0.00     0.136 A 
ATOM     53  C   UNL     1     -50.438  30.318  23.720  1.00  0.00     0.120 A 
ATOM     54  N   UNL     1     -50.103  29.819  22.514  1.00  0.00    -0.219 NA
ATOM     55  H   UNL     1     -51.466  30.153  24.028  1.00  0.00     0.106 H 
BRANCH  52  56
ATOM     56  N   UNL     1     -48.512  29.479  20.837  1.00  0.00    -0.383 N 
ATOM     57  H   UNL     1     -47.658  28.936  20.888  1.00  0.00     0.158 HD
ATOM     58  H   UNL     1     -49.285  29.051  20.346  1.00  0.00     0.158 HD
ENDBRANCH  52  56
ENDBRANCH  35  44
BRANCH  38  59
ATOM     59  O   UNL     1     -46.134  32.100  28.110  1.00  0.00    -0.388 OA
ATOM     60  H   UNL     1     -46.704  32.654  28.674  1.00  0.00     0.211 HD
ENDBRANCH  38  59
ENDBRANCH  28  31
ENDBRANCH   1  28
TORSDOF 10
ENDMDL
MODEL 3
REMARK VINA RESULT:      -9.4      1.519      2.185
REMARK SMILES CN(C)c1ccc2ccc(CC[C@H]3C[C@@H](n4ccc5c(N)ncnc54)[C@H](O)[C@@H]3O)cc2n1
REMARK SMILES IDX 11 1 10 4 4 5 5 6 32 7 6 8 31 10 7 11 30 13 8 14 9 16 2 19
REMARK SMILES IDX 1 20 3 24 12 28 13 31 14 32 28 33 15 35 26 38 29 42 16 44
REMARK SMILES IDX 17 45 25 46 18 47 19 49 24 50 20 52 23 53 22 54 21 56 27 59
REMARK H PARENT 11 2 11 3 5 9 6 12 30 15 8 17 9 18 1 21 1 22 1 23 3 25 3 26
REMARK H PARENT 3 27 12 29 12 30 13 34 14 36 14 37 28 39 15 40 26 41 29 43
REMARK H PARENT 17 48 18 51 23 55 21 57 21 58 27 60
REMARK Flexibility Score: inf
ROOT
ATOM      1  C   UNL     1     -47.742  34.380  26.985  1.00  0.00    -0.027 C 
ATOM      2  H   UNL     1     -48.814  34.405  27.224  1.00  0.00     0.032 H 
ATOM      3  H   UNL     1     -47.232  34.162  27.932  1.00  0.00     0.032 H 
ENDROOT
BRANCH   1   4
ATOM      4  C   UNL     1     -47.529  33.255  26.004  1.00  0.00    -0.046 A 
ATOM      5  C   UNL     1     -48.949  29.039  24.250  1.00  0.00     0.128 A 
ATOM      6  C   UNL     1     -47.915  29.042  23.315  1.00  0.00    -0.019 A 
ATOM      7  N   UNL     1     -49.098  30.068  25.115  1.00  0.00    -0.231 NA
ATOM      8  C   UNL     1     -47.010  30.099  23.284  1.00  0.00    -0.049 A 
ATOM      9  H   UNL     1     -47.823  28.238  22.592  1.00  0.00     0.066 H 
ATOM     10  C   UNL     1     -48.228  31.094  25.090  1.00  0.00     0.073 A 
ATOM     11  C   UNL     1     -47.155  31.154  24.185  1.00  0.00     0.000 A 
ATOM     12  H   UNL     1     -46.209  30.095  22.550  1.00  0.00     0.063 H 
ATOM     13  C   UNL     1     -48.388  32.144  25.986  1.00  0.00    -0.033 A 
ATOM     14  C   UNL     1     -46.271  32.245  24.201  1.00  0.00    -0.053 A 
ATOM     15  H   UNL     1     -49.215  32.085  26.692  1.00  0.00     0.065 H 
ATOM     16  C   UNL     1     -46.455  33.287  25.110  1.00  0.00    -0.058 A 
ATOM     17  H   UNL     1     -45.437  32.290  23.505  1.00  0.00     0.063 H 
ATOM     18  H   UNL     1     -45.761  34.124  25.107  1.00  0.00     0.063 H 
BRANCH   5  19
ATOM     19  N   UNL     1     -49.867  27.965  24.267  1.00  0.00    -0.363 N 
BRANCH  19  20
ATOM     20  C   UNL     1     -49.760  27.159  25.483  1.00  0.00     0.008 C 
ATOM     21  H   UNL     1     -49.144  27.657  26.242  1.00  0.00     0.046 H 
ATOM     22  H   UNL     1     -49.344  26.166  25.282  1.00  0.00     0.046 H 
ATOM     23  H   UNL     1     -50.755  26.995  25.914  1.00  0.00     0.046 H 
ENDBRANCH  19  20
BRANCH  19  24
ATOM     24  C   UNL     1     -51.233  28.389  23.956  1.00  0.00     0.008 C 
ATOM     25  H   UNL     1     -51.326  29.481  23.918  1.00  0.00     0.046 H 
ATOM     26  H   UNL     1     -51.577  27.960  23.006  1.00  0.00     0.046 H 
ATOM     27  H   UNL     1     -51.919  28.023  24.728  1.00  0.00     0.046 H 
ENDBRANCH  19  24
ENDBRANCH   5  19
ENDBRANCH   1   4
BRANCH   1  28
ATOM     28  C   UNL     1     -47.316  35.772  26.495  1.00  0.00    -0.044 C 
ATOM     29  H   UNL     1     -48.213  36.253  26.082  1.00  0.00     0.027 H 
ATOM     30  H   UNL     1     -46.607  35.691  25.662  1.00  0.00     0.027 H 
BRANCH  28  31
ATOM     31  C   UNL     1     -46.744  36.692  27.585  1.00  0.00    -0.010 C 
ATOM     32  C   UNL     1     -45.414  37.365  27.241  1.00  0.00    -0.024 C 
ATOM     33  C   UNL     1     -47.653  37.899  27.840  1.00  0.00     0.085 C 
ATOM     34  H   UNL     1     -46.642  36.110  28.511  1.00  0.00     0.033 H 
ATOM     35  C   UNL     1     -45.341  38.619  28.136  1.00  0.00     0.064 C 
ATOM     36  H   UNL     1     -44.563  36.709  27.447  1.00  0.00     0.029 H 
ATOM     37  H   UNL     1     -45.375  37.626  26.176  1.00  0.00     0.029 H 
ATOM     38  C   UNL     1     -46.775  38.863  28.650  1.00  0.00     0.101 C 
ATOM     39  H   UNL     1     -47.952  38.364  26.893  1.00  0.00     0.063 H 
ATOM     40  H   UNL     1     -44.692  38.395  28.992  1.00  0.00     0.056 H 
ATOM     41  H   UNL     1     -47.119  39.896  28.540  1.00  0.00     0.065 H 
BRANCH  33  42
ATOM     42  O   UNL     1     -48.821  37.518  28.553  1.00  0.00    -0.390 OA
ATOM     43  H   UNL     1     -49.555  37.524  27.905  1.00  0.00     0.211 HD
ENDBRANCH  33  42
BRANCH  35  44
ATOM     44  N   UNL     1     -44.768  39.764  27.446  1.00  0.00    -0.327 N 
ATOM     45  C   UNL     1     -45.150  40.239  26.213  1.00  0.00     0.007 A 
ATOM     46  C   UNL     1     -43.738  40.533  27.934  1.00  0.00     0.145 A 
ATOM     47  C   UNL     1     -44.359  41.329  25.914  1.00  0.00    -0.031 A 
ATOM     48  H   UNL     1     -45.944  39.773  25.645  1.00  0.00     0.082 H 
ATOM     49  C   UNL     1     -43.458  41.520  26.997  1.00  0.00     0.061 A 
ATOM     50  N   UNL     1     -43.113  40.356  29.110  1.00  0.00    -0.218 NA
ATOM     51  H   UNL     1     -44.421  41.924  25.013  1.00  0.00     0.065 H 
ATOM     52  C   UNL     1     -42.426  42.414  27.311  1.00  0.00     0.136 A 
ATOM     53  C   UNL     1     -42.151  41.273  29.302  1.00  0.00     0.120 A 
ATOM     54  N   UNL     1     -41.773  42.272  28.481  1.00  0.00    -0.219 NA
ATOM     55  H   UNL     1     -41.604  41.200  30.237  1.00  0.00     0.106 H 
BRANCH  52  56
ATOM     56  N   UNL     1     -42.015  43.441  26.472  1.00  0.00    -0.383 N 
ATOM     57  H   UNL     1     -41.157  43.184  25.996  1.00  0.00     0.158 HD
ATOM     58  H   UNL     1     -42.748  43.828  25.894  1.00  0.00     0.158 HD
ENDBRANCH  52  56
ENDBRANCH  35  44
BRANCH  38  59
ATOM     59  O   UNL     1     -46.904  38.547  30.049  1.00  0.00    -0.388 OA
ATOM     60  H   UNL     1     -47.698  37.998  30.175  1.00  0.00     0.211 HD
ENDBRANCH  38  59
ENDBRANCH  28  31
ENDBRANCH   1  28
TORSDOF 10
ENDMDL
MODEL 4
REMARK VINA RESULT:      -9.2      2.292     10.230
REMARK SMILES CN(C)c1ccc2ccc(CC[C@H]3C[C@@H](n4ccc5c(N)ncnc54)[C@H](O)[C@@H]3O)cc2n1
REMARK SMILES IDX 11 1 10 4 4 5 5 6 32 7 6 8 31 10 7 11 30 13 8 14 9 16 2 19
REMARK SMILES IDX 1 20 3 24 12 28 13 31 14 32 28 33 15 35 26 38 29 42 16 44
REMARK SMILES IDX 17 45 25 46 18 47 19 49 24 50 20 52 23 53 22 54 21 56 27 59
REMARK H PARENT 11 2 11 3 5 9 6 12 30 15 8 17 9 18 1 21 1 22 1 23 3 25 3 26
REMARK H PARENT 3 27 12 29 12 30 13 34 14 36 14 37 28 39 15 40 26 41 29 43
REMARK H PARENT 17 48 18 51 23 55 21 57 21 58 27 60
REMARK Flexibility Score: inf
ROOT
ATOM      1  C   UNL     1     -46.627  38.947  27.753  1.00  0.00    -0.027 C 
ATOM      2  H   UNL     1     -46.526  38.493  28.747  1.00  0.00     0.032 H 
ATOM      3  H   UNL     1     -47.539  39.556  27.795  1.00  0.00     0.032 H 
ENDROOT
BRANCH   1   4
ATOM      4  C   UNL     1     -45.420  39.827  27.539  1.00  0.00    -0.046 A 
ATOM      5  C   UNL     1     -43.171  43.102  24.879  1.00  0.00     0.128 A 
ATOM      6  C   UNL     1     -42.100  43.140  25.770  1.00  0.00    -0.019 A 
ATOM      7  N   UNL     1     -44.230  42.293  25.108  1.00  0.00    -0.231 NA
ATOM      8  C   UNL     1     -42.105  42.321  26.896  1.00  0.00    -0.049 A 
ATOM      9  H   UNL     1     -41.272  43.823  25.610  1.00  0.00     0.066 H 
ATOM     10  C   UNL     1     -44.242  41.499  26.194  1.00  0.00     0.073 A 
ATOM     11  C   UNL     1     -43.190  41.475  27.125  1.00  0.00     0.000 A 
ATOM     12  H   UNL     1     -41.268  42.359  27.588  1.00  0.00     0.063 H 
ATOM     13  C   UNL     1     -45.333  40.668  26.417  1.00  0.00    -0.033 A 
ATOM     14  C   UNL     1     -43.248  40.625  28.242  1.00  0.00    -0.053 A 
ATOM     15  H   UNL     1     -46.139  40.684  25.686  1.00  0.00     0.065 H 
ATOM     16  C   UNL     1     -44.355  39.802  28.443  1.00  0.00    -0.058 A 
ATOM     17  H   UNL     1     -42.432  40.602  28.960  1.00  0.00     0.063 H 
ATOM     18  H   UNL     1     -44.382  39.151  29.315  1.00  0.00     0.063 H 
BRANCH   5  19
ATOM     19  N   UNL     1     -43.161  43.945  23.745  1.00  0.00    -0.363 N 
BRANCH  19  20
ATOM     20  C   UNL     1     -42.020  43.684  22.866  1.00  0.00     0.008 C 
ATOM     21  H   UNL     1     -41.434  44.592  22.689  1.00  0.00     0.046 H 
ATOM     22  H   UNL     1     -42.332  43.267  21.902  1.00  0.00     0.046 H 
ATOM     23  H   UNL     1     -41.358  42.939  23.324  1.00  0.00     0.046 H 
ENDBRANCH  19  20
BRANCH  19  24
ATOM     24  C   UNL     1     -44.450  43.970  23.052  1.00  0.00     0.008 C 
ATOM     25  H   UNL     1     -45.259  43.574  23.676  1.00  0.00     0.046 H 
ATOM     26  H   UNL     1     -44.705  44.985  22.722  1.00  0.00     0.046 H 
ATOM     27  H   UNL     1     -44.395  43.355  22.147  1.00  0.00     0.046 H 
ENDBRANCH  19  24
ENDBRANCH   5  19
ENDBRANCH   1   4
BRANCH   1  28
ATOM     28  C   UNL     1     -46.818  37.828  26.718  1.00  0.00    -0.044 C 
ATOM     29  H   UNL     1     -45.911  37.808  26.100  1.00  0.00     0.027 H 
ATOM     30  H   UNL     1     -47.643  38.066  26.036  1.00  0.00     0.027 H 
BRANCH  28  31
ATOM     31  C   UNL     1     -47.017  36.426  27.315  1.00  0.00    -0.010 C 
ATOM     32  C   UNL     1     -47.759  35.433  26.418  1.00  0.00    -0.024 C 
ATOM     33  C   UNL     1     -45.679  35.712  27.539  1.00  0.00     0.085 C 
ATOM     34  H   UNL     1     -47.540  36.529  28.275  1.00  0.00     0.033 H 
ATOM     35  C   UNL     1     -47.335  34.034  26.911  1.00  0.00     0.064 C 
ATOM     36  H   UNL     1     -48.844  35.545  26.501  1.00  0.00     0.029 H 
ATOM     37  H   UNL     1     -47.494  35.588  25.366  1.00  0.00     0.029 H 
ATOM     38  C   UNL     1     -46.072  34.247  27.772  1.00  0.00     0.101 C 
ATOM     39  H   UNL     1     -45.043  35.797  26.650  1.00  0.00     0.063 H 
ATOM     40  H   UNL     1     -48.134  33.635  27.548  1.00  0.00     0.056 H 
ATOM     41  H   UNL     1     -45.246  33.574  27.526  1.00  0.00     0.065 H 
BRANCH  33  42
ATOM     42  O   UNL     1     -44.988  36.260  28.652  1.00  0.00    -0.390 OA
ATOM     43  H   UNL     1     -45.543  36.082  29.439  1.00  0.00     0.211 HD
ENDBRANCH  33  42
BRANCH  35  44
ATOM     44  N   UNL     1     -47.142  33.093  25.819  1.00  0.00    -0.327 N 
ATOM     45  C   UNL     1     -45.933  32.724  25.274  1.00  0.00     0.007 A 
ATOM     46  C   UNL     1     -48.158  32.443  25.160  1.00  0.00     0.145 A 
ATOM     47  C   UNL     1     -46.182  31.822  24.260  1.00  0.00    -0.031 A 
ATOM     48  H   UNL     1     -44.998  33.126  25.640  1.00  0.00     0.082 H 
ATOM     49  C   UNL     1     -47.590  31.641  24.179  1.00  0.00     0.061 A 
ATOM     50  N   UNL     1     -49.470  32.567  25.422  1.00  0.00    -0.218 NA
ATOM     51  H   UNL     1     -45.433  31.344  23.644  1.00  0.00     0.065 H 
ATOM     52  C   UNL     1     -48.471  30.891  23.388  1.00  0.00     0.136 A 
ATOM     53  C   UNL     1     -50.212  31.798  24.608  1.00  0.00     0.120 A 
ATOM     54  N   UNL     1     -49.795  30.985  23.617  1.00  0.00    -0.219 NA
ATOM     55  H   UNL     1     -51.285  31.838  24.764  1.00  0.00     0.106 H 
BRANCH  52  56
ATOM     56  N   UNL     1     -48.060  30.059  22.355  1.00  0.00    -0.383 N 
ATOM     57  H   UNL     1     -48.546  29.171  22.404  1.00  0.00     0.158 HD
ATOM     58  H   UNL     1     -48.030  30.503  21.448  1.00  0.00     0.158 HD
ENDBRANCH  52  56
ENDBRANCH  35  44
BRANCH  38  59
ATOM     59  O   UNL     1     -46.341  34.053  29.173  1.00  0.00    -0.388 OA
ATOM     60  H   UNL     1     -45.506  34.137  29.668  1.00  0.00     0.211 HD
ENDBRANCH  38  59
ENDBRANCH  28  31
ENDBRANCH   1  28
TORSDOF 10
ENDMDL
MODEL 5
REMARK VINA RESULT:      -8.9      1.735      2.186
REMARK SMILES CN(C)c1ccc2ccc(CC[C@H]3C[C@@H](n4ccc5c(N)ncnc54)[C@H](O)[C@@H]3O)cc2n1
REMARK SMILES IDX 11 1 10 4 4 5 5 6 32 7 6 8 31 10 7 11 30 13 8 14 9 16 2 19
REMARK SMILES IDX 1 20 3 24 12 28 13 31 14 32 28 33 15 35 26 38 29 42 16 44
REMARK SMILES IDX 17 45 25 46 18 47 19 49 24 50 20 52 23 53 22 54 21 56 27 59
REMARK H PARENT 11 2 11 3 5 9 6 12 30 15 8 17 9 18 1 21 1 22 1 23 3 25 3 26
REMARK H PARENT 3 27 12 29 12 30 13 34 14 36 14 37 28 39 15 40 26 41 29 43
REMARK H PARENT 17 48 18 51 23 55 21 57 21 58 27 60
REMARK Flexibility Score: inf
ROOT
ATOM      1  C   UNL     1     -47.366  35.904  27.146  1.00  0.00    -0.027 C 
ATOM      2  H   UNL     1     -46.747  36.497  26.460  1.00  0.00     0.032 H 
ATOM      3  H   UNL     1     -48.266  36.505  27.329  1.00  0.00     0.032 H 
ENDROOT
BRANCH   1   4
ATOM      4  C   UNL     1     -47.727  34.626  26.431  1.00  0.00    -0.046 A 
ATOM      5  C   UNL     1     -46.529  31.221  23.296  1.00  0.00     0.128 A 
ATOM      6  C   UNL     1     -47.724  30.541  23.525  1.00  0.00    -0.019 A 
ATOM      7  N   UNL     1     -46.249  32.367  23.956  1.00  0.00    -0.231 NA
ATOM      8  C   UNL     1     -48.654  31.058  24.423  1.00  0.00    -0.049 A 
ATOM      9  H   UNL     1     -47.927  29.598  23.028  1.00  0.00     0.066 H 
ATOM     10  C   UNL     1     -47.143  32.872  24.826  1.00  0.00     0.073 A 
ATOM     11  C   UNL     1     -48.374  32.248  25.093  1.00  0.00     0.000 A 
ATOM     12  H   UNL     1     -49.582  30.520  24.598  1.00  0.00     0.063 H 
ATOM     13  C   UNL     1     -46.849  34.053  25.496  1.00  0.00    -0.033 A 
ATOM     14  C   UNL     1     -49.275  32.816  26.009  1.00  0.00    -0.053 A 
ATOM     15  H   UNL     1     -45.899  34.536  25.275  1.00  0.00     0.065 H 
ATOM     16  C   UNL     1     -48.954  34.002  26.669  1.00  0.00    -0.058 A 
ATOM     17  H   UNL     1     -50.230  32.338  26.212  1.00  0.00     0.063 H 
ATOM     18  H   UNL     1     -49.665  34.427  27.374  1.00  0.00     0.063 H 
BRANCH   5  19
ATOM     19  N   UNL     1     -45.587  30.683  22.389  1.00  0.00    -0.363 N 
BRANCH  19  20
ATOM     20  C   UNL     1     -45.488  29.227  22.486  1.00  0.00     0.008 C 
ATOM     21  H   UNL     1     -46.396  28.790  22.918  1.00  0.00     0.046 H 
ATOM     22  H   UNL     1     -44.624  28.913  23.082  1.00  0.00     0.046 H 
ATOM     23  H   UNL     1     -45.348  28.793  21.489  1.00  0.00     0.046 H 
ENDBRANCH  19  20
BRANCH  19  24
ATOM     24  C   UNL     1     -45.778  31.174  21.023  1.00  0.00     0.008 C 
ATOM     25  H   UNL     1     -45.081  30.708  20.318  1.00  0.00     0.046 H 
ATOM     26  H   UNL     1     -46.808  31.012  20.682  1.00  0.00     0.046 H 
ATOM     27  H   UNL     1     -45.609  32.257  20.993  1.00  0.00     0.046 H 
ENDBRANCH  19  24
ENDBRANCH   5  19
ENDBRANCH   1   4
BRANCH   1  28
ATOM     28  C   UNL     1     -46.603  35.727  28.468  1.00  0.00    -0.044 C 
ATOM     29  H   UNL     1     -46.093  34.757  28.413  1.00  0.00     0.027 H 
ATOM     30  H   UNL     1     -47.299  35.654  29.312  1.00  0.00     0.027 H 
BRANCH  28  31
ATOM     31  C   UNL     1     -45.544  36.805  28.750  1.00  0.00    -0.010 C 
ATOM     32  C   UNL     1     -45.145  37.659  27.545  1.00  0.00    -0.024 C 
ATOM     33  C   UNL     1     -46.060  37.862  29.731  1.00  0.00     0.085 C 
ATOM     34  H   UNL     1     -44.657  36.316  29.174  1.00  0.00     0.033 H 
ATOM     35  C   UNL     1     -44.585  38.970  28.136  1.00  0.00     0.064 C 
ATOM     36  H   UNL     1     -44.381  37.168  26.935  1.00  0.00     0.029 H 
ATOM     37  H   UNL     1     -46.010  37.845  26.898  1.00  0.00     0.029 H 
ATOM     38  C   UNL     1     -45.053  39.013  29.605  1.00  0.00     0.101 C 
ATOM     39  H   UNL     1     -47.062  38.201  29.441  1.00  0.00     0.063 H 
ATOM     40  H   UNL     1     -43.490  38.918  28.115  1.00  0.00     0.056 H 
ATOM     41  H   UNL     1     -45.503  39.964  29.903  1.00  0.00     0.065 H 
BRANCH  33  42
ATOM     42  O   UNL     1     -46.117  37.347  31.054  1.00  0.00    -0.390 OA
ATOM     43  H   UNL     1     -46.834  37.832  31.510  1.00  0.00     0.211 HD
ENDBRANCH  33  42
BRANCH  35  44
ATOM     44  N   UNL     1     -44.978  40.141  27.367  1.00  0.00    -0.327 N 
ATOM     45  C   UNL     1     -46.237  40.402  26.878  1.00  0.00     0.007 A 
ATOM     46  C   UNL     1     -44.126  41.157  27.004  1.00  0.00     0.145 A 
ATOM     47  C   UNL     1     -46.189  41.603  26.201  1.00  0.00    -0.031 A 
ATOM     48  H   UNL     1     -47.063  39.722  27.042  1.00  0.00     0.082 H 
ATOM     49  C   UNL     1     -44.854  42.086  26.273  1.00  0.00     0.061 A 
ATOM     50  N   UNL     1     -42.819  41.232  27.305  1.00  0.00    -0.218 NA
ATOM     51  H   UNL     1     -47.024  42.082  25.708  1.00  0.00     0.065 H 
ATOM     52  C   UNL     1     -44.157  43.209  25.805  1.00  0.00     0.136 A 
ATOM     53  C   UNL     1     -42.261  42.350  26.811  1.00  0.00     0.120 A 
ATOM     54  N   UNL     1     -42.844  43.324  26.085  1.00  0.00    -0.219 NA
ATOM     55  H   UNL     1     -41.205  42.487  27.020  1.00  0.00     0.106 H 
BRANCH  52  56
ATOM     56  N   UNL     1     -44.738  44.215  25.045  1.00  0.00    -0.383 N 
ATOM     57  H   UNL     1     -44.023  44.755  24.572  1.00  0.00     0.158 HD
ATOM     58  H   UNL     1     -45.519  43.914  24.480  1.00  0.00     0.158 HD
ENDBRANCH  52  56
ENDBRANCH  35  44
BRANCH  38  59
ATOM     59  O   UNL     1     -43.965  38.782  30.520  1.00  0.00    -0.388 OA
ATOM     60  H   UNL     1     -43.673  37.857  30.433  1.00  0.00     0.211 HD
ENDBRANCH  38  59
ENDBRANCH  28  31
ENDBRANCH   1  28
TORSDOF 10
ENDMDL
MODEL 6
REMARK VINA RESULT:      -8.8      4.033     11.512
REMARK SMILES CN(C)c1ccc2ccc(CC[C@H]3C[C@@H](n4ccc5c(N)ncnc54)[C@H](O)[C@@H]3O)cc2n1
REMARK SMILES IDX 11 1 10 4 4 5 5 6 32 7 6 8 31 10 7 11 30 13 8 14 9 16 2 19
REMARK SMILES IDX 1 20 3 24 12 28 13 31 14 32 28 33 15 35 26 38 29 42 16 44
REMARK SMILES IDX 17 45 25 46 18 47 19 49 24 50 20 52 23 53 22 54 21 56 27 59
REMARK H PARENT 11 2 11 3 5 9 6 12 30 15 8 17 9 18 1 21 1 22 1 23 3 25 3 26
REMARK H PARENT 3 27 12 29 12 30 13 34 14 36 14 37 28 39 15 40 26 41 29 43
REMARK H PARENT 17 48 18 51 23 55 21 57 21 58 27 60
REMARK Flexibility Score: inf
ROOT
ATOM      1  C   UNL     1     -46.475  31.503  24.296  1.00  0.00    -0.027 C 
ATOM      2  H   UNL     1     -45.403  31.527  24.531  1.00  0.00     0.032 H 
ATOM      3  H   UNL     1     -46.830  30.518  24.626  1.00  0.00     0.032 H 
ENDROOT
BRANCH   1   4
ATOM      4  C   UNL     1     -47.135  32.593  25.102  1.00  0.00    -0.046 A 
ATOM      5  C   UNL     1     -46.815  36.864  27.229  1.00  0.00     0.128 A 
ATOM      6  C   UNL     1     -48.146  36.799  27.636  1.00  0.00    -0.019 A 
ATOM      7  N   UNL     1     -46.263  35.859  26.511  1.00  0.00    -0.231 NA
ATOM      8  C   UNL     1     -48.913  35.679  27.324  1.00  0.00    -0.049 A 
ATOM      9  H   UNL     1     -48.600  37.626  28.172  1.00  0.00     0.066 H 
ATOM     10  C   UNL     1     -46.998  34.775  26.206  1.00  0.00     0.073 A 
ATOM     11  C   UNL     1     -48.341  34.636  26.597  1.00  0.00     0.000 A 
ATOM     12  H   UNL     1     -49.951  35.638  27.642  1.00  0.00     0.063 H 
ATOM     13  C   UNL     1     -46.421  33.745  25.472  1.00  0.00    -0.033 A 
ATOM     14  C   UNL     1     -49.066  33.482  26.256  1.00  0.00    -0.053 A 
ATOM     15  H   UNL     1     -45.378  33.854  25.182  1.00  0.00     0.065 H 
ATOM     16  C   UNL     1     -48.463  32.465  25.517  1.00  0.00    -0.058 A 
ATOM     17  H   UNL     1     -50.103  33.371  26.563  1.00  0.00     0.063 H 
ATOM     18  H   UNL     1     -49.040  31.579  25.263  1.00  0.00     0.063 H 
BRANCH   5  19
ATOM     19  N   UNL     1     -46.048  38.009  27.542  1.00  0.00    -0.363 N 
BRANCH  19  20
ATOM     20  C   UNL     1     -46.700  39.249  27.121  1.00  0.00     0.008 C 
ATOM     21  H   UNL     1     -46.323  39.591  26.150  1.00  0.00     0.046 H 
ATOM     22  H   UNL     1     -46.570  40.051  27.856  1.00  0.00     0.046 H 
ATOM     23  H   UNL     1     -47.781  39.090  27.025  1.00  0.00     0.046 H 
ENDBRANCH  19  20
BRANCH  19  24
ATOM     24  C   UNL     1     -45.596  38.019  28.934  1.00  0.00     0.008 C 
ATOM     25  H   UNL     1     -45.855  38.955  29.443  1.00  0.00     0.046 H 
ATOM     26  H   UNL     1     -46.011  37.171  29.494  1.00  0.00     0.046 H 
ATOM     27  H   UNL     1     -44.506  37.910  28.970  1.00  0.00     0.046 H 
ENDBRANCH  19  24
ENDBRANCH   5  19
ENDBRANCH   1   4
BRANCH   1  28
ATOM     28  C   UNL     1     -46.647  31.613  22.773  1.00  0.00    -0.044 C 
ATOM     29  H   UNL     1     -45.642  31.731  22.347  1.00  0.00     0.027 H 
ATOM     30  H   UNL     1     -47.196  32.525  22.509  1.00  0.00     0.027 H 
BRANCH  28  31
ATOM     31  C   UNL     1     -47.303  30.393  22.108  1.00  0.00    -0.010 C 
ATOM     32  C   UNL     1     -47.707  29.267  23.062  1.00  0.00    -0.024 C 
ATOM     33  C   UNL     1     -48.644  30.754  21.460  1.00  0.00     0.085 C 
ATOM     34  H   UNL     1     -46.619  30.007  21.340  1.00  0.00     0.033 H 
ATOM     35  C   UNL     1     -48.815  28.483  22.330  1.00  0.00     0.064 C 
ATOM     36  H   UNL     1     -46.866  28.604  23.286  1.00  0.00     0.029 H 
ATOM     37  H   UNL     1     -48.063  29.676  24.016  1.00  0.00     0.029 H 
ATOM     38  C   UNL     1     -49.306  29.397  21.189  1.00  0.00     0.101 C 
ATOM     39  H   UNL     1     -49.259  31.346  22.149  1.00  0.00     0.063 H 
ATOM     40  H   UNL     1     -48.369  27.581  21.894  1.00  0.00     0.056 H 
ATOM     41  H   UNL     1     -50.394  29.494  21.132  1.00  0.00     0.065 H 
BRANCH  33  42
ATOM     42  O   UNL     1     -48.449  31.499  20.266  1.00  0.00    -0.390 OA
ATOM     43  H   UNL     1     -49.239  32.068  20.162  1.00  0.00     0.211 HD
ENDBRANCH  33  42
BRANCH  35  44
ATOM     44  N   UNL     1     -49.876  28.050  23.226  1.00  0.00    -0.327 N 
ATOM     45  C   UNL     1     -51.202  28.409  23.142  1.00  0.00     0.007 A 
ATOM     46  C   UNL     1     -49.695  27.219  24.306  1.00  0.00     0.145 A 
ATOM     47  C   UNL     1     -51.875  27.795  24.177  1.00  0.00    -0.031 A 
ATOM     48  H   UNL     1     -51.564  29.069  22.364  1.00  0.00     0.082 H 
ATOM     49  C   UNL     1     -50.927  27.041  24.922  1.00  0.00     0.061 A 
ATOM     50  N   UNL     1     -48.528  26.678  24.695  1.00  0.00    -0.218 NA
ATOM     51  H   UNL     1     -52.934  27.878  24.377  1.00  0.00     0.065 H 
ATOM     52  C   UNL     1     -50.953  26.220  26.057  1.00  0.00     0.136 A 
ATOM     53  C   UNL     1     -48.679  25.908  25.785  1.00  0.00     0.120 A 
ATOM     54  N   UNL     1     -49.805  25.657  26.482  1.00  0.00    -0.219 NA
ATOM     55  H   UNL     1     -47.779  25.428  26.156  1.00  0.00     0.106 H 
BRANCH  52  56
ATOM     56  N   UNL     1     -52.100  25.960  26.795  1.00  0.00    -0.383 N 
ATOM     57  H   UNL     1     -52.914  25.956  26.190  1.00  0.00     0.158 HD
ATOM     58  H   UNL     1     -52.018  25.186  27.439  1.00  0.00     0.158 HD
ENDBRANCH  52  56
ENDBRANCH  35  44
BRANCH  38  59
ATOM     59  O   UNL     1     -48.880  28.919  19.900  1.00  0.00    -0.388 OA
ATOM     60  H   UNL     1     -49.490  29.261  19.221  1.00  0.00     0.211 HD
ENDBRANCH  38  59
ENDBRANCH  28  31
ENDBRANCH   1  28
TORSDOF 10
ENDMDL
MODEL 7
REMARK VINA RESULT:      -8.7      2.515     10.911
REMARK SMILES CN(C)c1ccc2ccc(CC[C@H]3C[C@@H](n4ccc5c(N)ncnc54)[C@H](O)[C@@H]3O)cc2n1
REMARK SMILES IDX 11 1 10 4 4 5 5 6 32 7 6 8 31 10 7 11 30 13 8 14 9 16 2 19
REMARK SMILES IDX 1 20 3 24 12 28 13 31 14 32 28 33 15 35 26 38 29 42 16 44
REMARK SMILES IDX 17 45 25 46 18 47 19 49 24 50 20 52 23 53 22 54 21 56 27 59
REMARK H PARENT 11 2 11 3 5 9 6 12 30 15 8 17 9 18 1 21 1 22 1 23 3 25 3 26
REMARK H PARENT 3 27 12 29 12 30 13 34 14 36 14 37 28 39 15 40 26 41 29 43
REMARK H PARENT 17 48 18 51 23 55 21 57 21 58 27 60
REMARK Flexibility Score: inf
ROOT
ATOM      1  C   UNL     1     -48.030  35.858  27.063  1.00  0.00    -0.027 C 
ATOM      2  H   UNL     1     -48.743  35.342  27.721  1.00  0.00     0.032 H 
ATOM      3  H   UNL     1     -48.613  36.625  26.536  1.00  0.00     0.032 H 
ENDROOT
BRANCH   1   4
ATOM      4  C   UNL     1     -46.994  36.504  27.946  1.00  0.00    -0.046 A 
ATOM      5  C   UNL     1     -43.814  40.012  28.622  1.00  0.00     0.128 A 
ATOM      6  C   UNL     1     -43.492  39.522  29.887  1.00  0.00    -0.019 A 
ATOM      7  N   UNL     1     -44.747  39.395  27.861  1.00  0.00    -0.231 NA
ATOM      8  C   UNL     1     -44.115  38.373  30.365  1.00  0.00    -0.049 A 
ATOM      9  H   UNL     1     -42.777  40.043  30.514  1.00  0.00     0.066 H 
ATOM     10  C   UNL     1     -45.354  38.285  28.318  1.00  0.00     0.073 A 
ATOM     11  C   UNL     1     -45.066  37.728  29.575  1.00  0.00     0.000 A 
ATOM     12  H   UNL     1     -43.860  37.999  31.353  1.00  0.00     0.063 H 
ATOM     13  C   UNL     1     -46.307  37.656  27.526  1.00  0.00    -0.033 A 
ATOM     14  C   UNL     1     -45.725  36.564  30.006  1.00  0.00    -0.053 A 
ATOM     15  H   UNL     1     -46.517  38.087  26.549  1.00  0.00     0.065 H 
ATOM     16  C   UNL     1     -46.679  35.954  29.192  1.00  0.00    -0.058 A 
ATOM     17  H   UNL     1     -45.499  36.129  30.976  1.00  0.00     0.063 H 
ATOM     18  H   UNL     1     -47.179  35.054  29.543  1.00  0.00     0.063 H 
BRANCH   5  19
ATOM     19  N   UNL     1     -43.182  41.184  28.149  1.00  0.00    -0.363 N 
BRANCH  19  20
ATOM     20  C   UNL     1     -41.871  41.397  28.763  1.00  0.00     0.008 C 
ATOM     21  H   UNL     1     -41.317  40.456  28.862  1.00  0.00     0.046 H 
ATOM     22  H   UNL     1     -41.950  41.870  29.748  1.00  0.00     0.046 H 
ATOM     23  H   UNL     1     -41.273  42.075  28.142  1.00  0.00     0.046 H 
ENDBRANCH  19  20
BRANCH  19  24
ATOM     24  C   UNL     1     -43.175  41.268  26.688  1.00  0.00     0.008 C 
ATOM     25  H   UNL     1     -42.474  42.028  26.324  1.00  0.00     0.046 H 
ATOM     26  H   UNL     1     -42.932  40.299  26.234  1.00  0.00     0.046 H 
ATOM     27  H   UNL     1     -44.175  41.538  26.329  1.00  0.00     0.046 H 
ENDBRANCH  19  24
ENDBRANCH   5  19
ENDBRANCH   1   4
BRANCH   1  28
ATOM     28  C   UNL     1     -47.488  34.849  26.039  1.00  0.00    -0.044 C 
ATOM     29  H   UNL     1     -46.395  34.847  26.143  1.00  0.00     0.027 H 
ATOM     30  H   UNL     1     -47.693  35.184  25.016  1.00  0.00     0.027 H 
BRANCH  28  31
ATOM     31  C   UNL     1     -47.985  33.407  26.230  1.00  0.00    -0.010 C 
ATOM     32  C   UNL     1     -48.846  32.857  25.092  1.00  0.00    -0.024 C 
ATOM     33  C   UNL     1     -46.823  32.408  26.260  1.00  0.00     0.085 C 
ATOM     34  H   UNL     1     -48.536  33.353  27.179  1.00  0.00     0.033 H 
ATOM     35  C   UNL     1     -48.726  31.322  25.188  1.00  0.00     0.064 C 
ATOM     36  H   UNL     1     -49.893  33.157  25.195  1.00  0.00     0.029 H 
ATOM     37  H   UNL     1     -48.493  33.230  24.123  1.00  0.00     0.029 H 
ATOM     38  C   UNL     1     -47.501  31.042  26.082  1.00  0.00     0.101 C 
ATOM     39  H   UNL     1     -46.129  32.598  25.432  1.00  0.00     0.063 H 
ATOM     40  H   UNL     1     -49.623  30.936  25.686  1.00  0.00     0.056 H 
ATOM     41  H   UNL     1     -46.804  30.308  25.668  1.00  0.00     0.065 H 
BRANCH  33  42
ATOM     42  O   UNL     1     -46.109  32.492  27.485  1.00  0.00    -0.390 OA
ATOM     43  H   UNL     1     -45.317  33.039  27.307  1.00  0.00     0.211 HD
ENDBRANCH  33  42
BRANCH  35  44
ATOM     44  N   UNL     1     -48.649  30.686  23.881  1.00  0.00    -0.327 N 
ATOM     45  C   UNL     1     -47.598  30.779  22.998  1.00  0.00     0.007 A 
ATOM     46  C   UNL     1     -49.638  29.904  23.335  1.00  0.00     0.145 A 
ATOM     47  C   UNL     1     -47.919  30.041  21.878  1.00  0.00    -0.031 A 
ATOM     48  H   UNL     1     -46.713  31.357  23.226  1.00  0.00     0.082 H 
ATOM     49  C   UNL     1     -49.212  29.486  22.082  1.00  0.00     0.061 A 
ATOM     50  N   UNL     1     -50.812  29.601  23.916  1.00  0.00    -0.218 NA
ATOM     51  H   UNL     1     -47.292  29.914  21.006  1.00  0.00     0.065 H 
ATOM     52  C   UNL     1     -50.091  28.671  21.354  1.00  0.00     0.136 A 
ATOM     53  C   UNL     1     -51.564  28.813  23.130  1.00  0.00     0.120 A 
ATOM     54  N   UNL     1     -51.279  28.344  21.900  1.00  0.00    -0.219 NA
ATOM     55  H   UNL     1     -52.527  28.518  23.535  1.00  0.00     0.106 H 
BRANCH  52  56
ATOM     56  N   UNL     1     -49.820  28.190  20.081  1.00  0.00    -0.383 N 
ATOM     57  H   UNL     1     -49.559  28.951  19.465  1.00  0.00     0.158 HD
ATOM     58  H   UNL     1     -49.225  27.373  20.061  1.00  0.00     0.158 HD
ENDBRANCH  52  56
ENDBRANCH  35  44
BRANCH  38  59
ATOM     59  O   UNL     1     -47.886  30.541  27.376  1.00  0.00    -0.388 OA
ATOM     60  H   UNL     1     -47.150  30.682  27.999  1.00  0.00     0.211 HD
ENDBRANCH  38  59
ENDBRANCH  28  31
ENDBRANCH   1  28
TORSDOF 10
ENDMDL
