MODEL 1
REMARK VINA RESULT:     -10.1      0.000      0.000
REMARK SMILES CNc1ccc2sc(CC[C@H]3O[C@@H](n4ccc5c(N)ncnc54)[C@@H](F)[C@@H]3O)cc2n1
REMARK SMILES IDX 9 1 8 4 3 5 4 6 30 7 5 8 29 10 6 11 28 13 7 14 2 16 1 18
REMARK SMILES IDX 10 22 11 25 12 26 26 27 13 29 24 30 25 33 27 35 14 37 15 38
REMARK SMILES IDX 23 39 16 40 17 42 22 43 18 45 21 46 20 47 19 49
REMARK H PARENT 9 2 9 3 4 9 5 12 28 15 2 17 1 19 1 20 1 21 10 23 10 24 11 28
REMARK H PARENT 26 31 13 32 24 34 27 36 15 41 16 44 21 48 19 50 19 51
REMARK Flexibility Score: inf
ROOT
ATOM      1  C   UNL     1     -48.233  35.225  27.150  1.00  0.00    -0.016 C 
ATOM      2  H   UNL     1     -48.342  34.935  28.203  1.00  0.00     0.033 H 
ATOM      3  H   UNL     1     -49.185  35.690  26.868  1.00  0.00     0.033 H 
ENDROOT
BRANCH   1   4
ATOM      4  C   UNL     1     -48.008  33.996  26.316  1.00  0.00     0.007 A 
ATOM      5  C   UNL     1     -48.292  29.944  24.102  1.00  0.00     0.126 A 
ATOM      6  C   UNL     1     -47.035  30.242  23.578  1.00  0.00    -0.018 A 
ATOM      7  N   UNL     1     -48.945  30.770  24.934  1.00  0.00    -0.230 NA
ATOM      8  C   UNL     1     -46.387  31.427  23.923  1.00  0.00    -0.039 A 
ATOM      9  H   UNL     1     -46.559  29.555  22.885  1.00  0.00     0.066 H 
ATOM     10  C   UNL     1     -48.320  31.925  25.279  1.00  0.00     0.084 A 
ATOM     11  C   UNL     1     -47.062  32.281  24.799  1.00  0.00     0.053 A 
ATOM     12  H   UNL     1     -45.410  31.675  23.524  1.00  0.00     0.064 H 
ATOM     13  C   UNL     1     -48.851  32.915  26.155  1.00  0.00    -0.022 A 
ATOM     14  S   UNL     1     -46.563  33.800  25.422  1.00  0.00    -0.139 S 
ATOM     15  H   UNL     1     -49.818  32.833  26.637  1.00  0.00     0.066 H 
BRANCH   5  16
ATOM     16  N   UNL     1     -48.891  28.737  23.683  1.00  0.00    -0.373 N 
ATOM     17  H   UNL     1     -48.765  28.641  22.679  1.00  0.00     0.161 HD
BRANCH  16  18
ATOM     18  C   UNL     1     -48.425  27.560  24.399  1.00  0.00     0.005 C 
ATOM     19  H   UNL     1     -48.325  27.755  25.472  1.00  0.00     0.045 H 
ATOM     20  H   UNL     1     -49.162  26.759  24.282  1.00  0.00     0.045 H 
ATOM     21  H   UNL     1     -47.473  27.194  23.998  1.00  0.00     0.045 H 
ENDBRANCH  16  18
ENDBRANCH   5  16
ENDBRANCH   1   4
BRANCH   1  22
ATOM     22  C   UNL     1     -47.089  36.240  27.035  1.00  0.00    -0.019 C 
ATOM     23  H   UNL     1     -46.576  36.047  26.087  1.00  0.00     0.030 H 
ATOM     24  H   UNL     1     -47.493  37.259  26.970  1.00  0.00     0.030 H 
BRANCH  22  25
ATOM     25  C   UNL     1     -46.081  36.169  28.191  1.00  0.00     0.090 C 
ATOM     26  O   UNL     1     -44.949  37.013  27.897  1.00  0.00    -0.349 OA
ATOM     27  C   UNL     1     -46.678  36.657  29.519  1.00  0.00     0.116 C 
ATOM     28  H   UNL     1     -45.704  35.147  28.299  1.00  0.00     0.063 H 
ATOM     29  C   UNL     1     -44.954  38.097  28.851  1.00  0.00     0.169 C 
ATOM     30  C   UNL     1     -46.309  38.122  29.543  1.00  0.00     0.173 C 
ATOM     31  H   UNL     1     -47.755  36.484  29.595  1.00  0.00     0.066 H 
ATOM     32  H   UNL     1     -44.181  37.833  29.585  1.00  0.00     0.088 H 
ATOM     33  F   UNL     1     -47.242  38.819  28.845  1.00  0.00    -0.239 F 
ATOM     34  H   UNL     1     -46.248  38.556  30.546  1.00  0.00     0.074 H 
BRANCH  27  35
ATOM     35  O   UNL     1     -46.047  36.006  30.630  1.00  0.00    -0.387 OA
ATOM     36  H   UNL     1     -46.128  35.044  30.492  1.00  0.00     0.211 HD
ENDBRANCH  27  35
BRANCH  29  37
ATOM     37  N   UNL     1     -44.534  39.339  28.227  1.00  0.00    -0.303 N 
ATOM     38  C   UNL     1     -45.084  39.831  27.061  1.00  0.00     0.009 A 
ATOM     39  C   UNL     1     -43.553  40.199  28.665  1.00  0.00     0.147 A 
ATOM     40  C   UNL     1     -44.447  41.015  26.754  1.00  0.00    -0.031 A 
ATOM     41  H   UNL     1     -45.878  39.303  26.548  1.00  0.00     0.082 H 
ATOM     42  C   UNL     1     -43.478  41.256  27.764  1.00  0.00     0.061 A 
ATOM     43  N   UNL     1     -42.795  40.047  29.763  1.00  0.00    -0.218 NA
ATOM     44  H   UNL     1     -44.651  41.636  25.893  1.00  0.00     0.065 H 
ATOM     45  C   UNL     1     -42.528  42.251  28.034  1.00  0.00     0.136 A 
ATOM     46  C   UNL     1     -41.921  41.055  29.911  1.00  0.00     0.120 A 
ATOM     47  N   UNL     1     -41.751  42.136  29.126  1.00  0.00    -0.219 NA
ATOM     48  H   UNL     1     -41.268  40.993  30.777  1.00  0.00     0.106 H 
BRANCH  45  49
ATOM     49  N   UNL     1     -42.348  43.377  27.241  1.00  0.00    -0.383 N 
ATOM     50  H   UNL     1     -41.658  43.269  26.512  1.00  0.00     0.158 HD
ATOM     51  H   UNL     1     -43.246  43.752  26.957  1.00  0.00     0.158 HD
ENDBRANCH  45  49
ENDBRANCH  29  37
ENDBRANCH  22  25
ENDBRANCH   1  22
TORSDOF 8
ENDMDL
MODEL 2
REMARK VINA RESULT:      -9.2      2.535      9.939
REMARK SMILES CNc1ccc2sc(CC[C@H]3O[C@@H](n4ccc5c(N)ncnc54)[C@@H](F)[C@@H]3O)cc2n1
REMARK SMILES IDX 9 1 8 4 3 5 4 6 30 7 5 8 29 10 6 11 28 13 7 14 2 16 1 18
REMARK SMILES IDX 10 22 11 25 12 26 26 27 13 29 24 30 25 33 27 35 14 37 15 38
REMARK SMILES IDX 23 39 16 40 17 42 22 43 18 45 21 46 20 47 19 49
REMARK H PARENT 9 2 9 3 4 9 5 12 28 15 2 17 1 19 1 20 1 21 10 23 10 24 11 28
REMARK H PARENT 26 31 13 32 24 34 27 36 15 41 16 44 21 48 19 50 19 51
REMARK Flexibility Score: inf
ROOT
ATOM      1  C   UNL     1     -48.420  36.951  27.775  1.00  0.00    -0.016 C 
ATOM      2  H   UNL     1     -49.334  37.502  27.518  1.00  0.00     0.033 H 
ATOM      3  H   UNL     1     -48.570  36.585  28.798  1.00  0.00     0.033 H 
ENDROOT
BRANCH   1   4
ATOM      4  C   UNL     1     -47.248  37.890  27.746  1.00  0.00     0.007 A 
ATOM      5  C   UNL     1     -44.098  41.130  26.754  1.00  0.00     0.126 A 
ATOM      6  C   UNL     1     -43.463  40.750  27.935  1.00  0.00    -0.018 A 
ATOM      7  N   UNL     1     -45.237  40.563  26.328  1.00  0.00    -0.230 NA
ATOM      8  C   UNL     1     -43.988  39.728  28.724  1.00  0.00    -0.039 A 
ATOM      9  H   UNL     1     -42.558  41.259  28.254  1.00  0.00     0.066 H 
ATOM     10  C   UNL     1     -45.755  39.564  27.088  1.00  0.00     0.084 A 
ATOM     11  C   UNL     1     -45.168  39.129  28.274  1.00  0.00     0.053 A 
ATOM     12  H   UNL     1     -43.508  39.420  29.645  1.00  0.00     0.064 H 
ATOM     13  C   UNL     1     -46.946  38.840  26.791  1.00  0.00    -0.022 A 
ATOM     14  S   UNL     1     -46.075  37.861  28.990  1.00  0.00    -0.139 S 
ATOM     15  H   UNL     1     -47.555  39.023  25.915  1.00  0.00     0.066 H 
BRANCH   5  16
ATOM     16  N   UNL     1     -43.516  42.190  26.027  1.00  0.00    -0.373 N 
ATOM     17  H   UNL     1     -43.689  42.041  25.037  1.00  0.00     0.161 HD
BRANCH  16  18
ATOM     18  C   UNL     1     -43.944  43.513  26.454  1.00  0.00     0.005 C 
ATOM     19  H   UNL     1     -44.921  43.775  26.034  1.00  0.00     0.045 H 
ATOM     20  H   UNL     1     -44.047  43.518  27.544  1.00  0.00     0.045 H 
ATOM     21  H   UNL     1     -43.209  44.280  26.188  1.00  0.00     0.045 H 
ENDBRANCH  16  18
ENDBRANCH   5  16
ENDBRANCH   1   4
BRANCH   1  22
ATOM     22  C   UNL     1     -48.265  35.775  26.804  1.00  0.00    -0.019 C 
ATOM     23  H   UNL     1     -49.268  35.494  26.469  1.00  0.00     0.030 H 
ATOM     24  H   UNL     1     -47.714  36.093  25.910  1.00  0.00     0.030 H 
BRANCH  22  25
ATOM     25  C   UNL     1     -47.565  34.555  27.419  1.00  0.00     0.090 C 
ATOM     26  O   UNL     1     -48.218  33.348  26.975  1.00  0.00    -0.349 OA
ATOM     27  C   UNL     1     -46.091  34.451  27.002  1.00  0.00     0.116 C 
ATOM     28  H   UNL     1     -47.647  34.584  28.510  1.00  0.00     0.063 H 
ATOM     29  C   UNL     1     -47.285  32.627  26.142  1.00  0.00     0.169 C 
ATOM     30  C   UNL     1     -46.142  33.564  25.780  1.00  0.00     0.173 C 
ATOM     31  H   UNL     1     -45.631  35.424  26.807  1.00  0.00     0.066 H 
ATOM     32  H   UNL     1     -46.899  31.820  26.781  1.00  0.00     0.088 H 
ATOM     33  F   UNL     1     -46.417  34.331  24.694  1.00  0.00    -0.239 F 
ATOM     34  H   UNL     1     -45.214  33.019  25.579  1.00  0.00     0.074 H 
BRANCH  27  35
ATOM     35  O   UNL     1     -45.319  33.794  28.016  1.00  0.00    -0.387 OA
ATOM     36  H   UNL     1     -45.944  33.373  28.635  1.00  0.00     0.211 HD
ENDBRANCH  27  35
BRANCH  29  37
ATOM     37  N   UNL     1     -47.966  31.992  25.029  1.00  0.00    -0.303 N 
ATOM     38  C   UNL     1     -49.339  31.963  24.889  1.00  0.00     0.009 A 
ATOM     39  C   UNL     1     -47.388  31.330  23.970  1.00  0.00     0.147 A 
ATOM     40  C   UNL     1     -49.637  31.277  23.731  1.00  0.00    -0.031 A 
ATOM     41  H   UNL     1     -49.987  32.429  25.620  1.00  0.00     0.082 H 
ATOM     42  C   UNL     1     -48.408  30.875  23.142  1.00  0.00     0.061 A 
ATOM     43  N   UNL     1     -46.072  31.149  23.768  1.00  0.00    -0.218 NA
ATOM     44  H   UNL     1     -50.630  31.080  23.352  1.00  0.00     0.065 H 
ATOM     45  C   UNL     1     -48.024  30.167  21.994  1.00  0.00     0.136 A 
ATOM     46  C   UNL     1     -45.829  30.454  22.645  1.00  0.00     0.120 A 
ATOM     47  N   UNL     1     -46.715  29.967  21.756  1.00  0.00    -0.219 NA
ATOM     48  H   UNL     1     -44.783  30.263  22.423  1.00  0.00     0.106 H 
BRANCH  45  49
ATOM     49  N   UNL     1     -48.924  29.668  21.062  1.00  0.00    -0.383 N 
ATOM     50  H   UNL     1     -48.504  29.109  20.333  1.00  0.00     0.158 HD
ATOM     51  H   UNL     1     -49.726  29.263  21.533  1.00  0.00     0.158 HD
ENDBRANCH  45  49
ENDBRANCH  29  37
ENDBRANCH  22  25
ENDBRANCH   1  22
TORSDOF 8
ENDMDL
MODEL 3
REMARK VINA RESULT:      -9.1      1.371      2.270
REMARK SMILES CNc1ccc2sc(CC[C@H]3O[C@@H](n4ccc5c(N)ncnc54)[C@@H](F)[C@@H]3O)cc2n1
REMARK SMILES IDX 9 1 8 4 3 5 4 6 30 7 5 8 29 10 6 11 28 13 7 14 2 16 1 18
REMARK SMILES IDX 10 22 11 25 12 26 26 27 13 29 24 30 25 33 27 35 14 37 15 38
REMARK SMILES IDX 23 39 16 40 17 42 22 43 18 45 21 46 20 47 19 49
REMARK H PARENT 9 2 9 3 4 9 5 12 28 15 2 17 1 19 1 20 1 21 10 23 10 24 11 28
REMARK H PARENT 26 31 13 32 24 34 27 36 15 41 16 44 21 48 19 50 19 51
REMARK Flexibility Score: inf
ROOT
ATOM      1  C   UNL     1     -47.950  35.951  26.980  1.00  0.00    -0.016 C 
ATOM      2  H   UNL     1     -48.347  35.845  27.998  1.00  0.00     0.033 H 
ATOM      3  H   UNL     1     -48.650  36.613  26.455  1.00  0.00     0.033 H 
ENDROOT
BRANCH   1   4
ATOM      4  C   UNL     1     -47.933  34.607  26.309  1.00  0.00     0.007 A 
ATOM      5  C   UNL     1     -46.880  30.749  23.985  1.00  0.00     0.126 A 
ATOM      6  C   UNL     1     -48.159  30.305  24.314  1.00  0.00    -0.018 A 
ATOM      7  N   UNL     1     -46.402  31.941  24.374  1.00  0.00    -0.230 NA
ATOM      8  C   UNL     1     -49.017  31.111  25.060  1.00  0.00    -0.039 A 
ATOM      9  H   UNL     1     -48.490  29.320  24.001  1.00  0.00     0.066 H 
ATOM     10  C   UNL     1     -47.232  32.735  25.099  1.00  0.00     0.084 A 
ATOM     11  C   UNL     1     -48.525  32.358  25.455  1.00  0.00     0.053 A 
ATOM     12  H   UNL     1     -50.014  30.782  25.327  1.00  0.00     0.064 H 
ATOM     13  C   UNL     1     -46.906  34.032  25.589  1.00  0.00    -0.022 A 
ATOM     14  S   UNL     1     -49.301  33.583  26.372  1.00  0.00    -0.139 S 
ATOM     15  H   UNL     1     -45.950  34.513  25.422  1.00  0.00     0.066 H 
BRANCH   5  16
ATOM     16  N   UNL     1     -46.064  29.863  23.249  1.00  0.00    -0.373 N 
ATOM     17  H   UNL     1     -46.595  29.021  23.047  1.00  0.00     0.161 HD
BRANCH  16  18
ATOM     18  C   UNL     1     -45.493  30.440  22.042  1.00  0.00     0.005 C 
ATOM     19  H   UNL     1     -44.673  29.827  21.652  1.00  0.00     0.045 H 
ATOM     20  H   UNL     1     -46.266  30.480  21.267  1.00  0.00     0.045 H 
ATOM     21  H   UNL     1     -45.142  31.464  22.212  1.00  0.00     0.045 H 
ENDBRANCH  16  18
ENDBRANCH   5  16
ENDBRANCH   1   4
BRANCH   1  22
ATOM     22  C   UNL     1     -46.562  36.596  27.057  1.00  0.00    -0.019 C 
ATOM     23  H   UNL     1     -46.004  36.277  26.170  1.00  0.00     0.030 H 
ATOM     24  H   UNL     1     -46.648  37.689  26.995  1.00  0.00     0.030 H 
BRANCH  22  25
ATOM     25  C   UNL     1     -45.777  36.224  28.323  1.00  0.00     0.090 C 
ATOM     26  O   UNL     1     -44.536  36.958  28.355  1.00  0.00    -0.349 OA
ATOM     27  C   UNL     1     -46.541  36.569  29.610  1.00  0.00     0.116 C 
ATOM     28  H   UNL     1     -45.524  35.159  28.309  1.00  0.00     0.063 H 
ATOM     29  C   UNL     1     -44.598  37.873  29.471  1.00  0.00     0.169 C 
ATOM     30  C   UNL     1     -46.043  37.956  29.942  1.00  0.00     0.173 C 
ATOM     31  H   UNL     1     -47.627  36.520  29.489  1.00  0.00     0.066 H 
ATOM     32  H   UNL     1     -43.990  37.405  30.256  1.00  0.00     0.088 H 
ATOM     33  F   UNL     1     -46.772  38.862  29.242  1.00  0.00    -0.239 F 
ATOM     34  H   UNL     1     -46.112  38.218  31.003  1.00  0.00     0.074 H 
BRANCH  27  35
ATOM     35  O   UNL     1     -46.174  35.681  30.673  1.00  0.00    -0.387 OA
ATOM     36  H   UNL     1     -45.621  36.184  31.300  1.00  0.00     0.211 HD
ENDBRANCH  27  35
BRANCH  29  37
ATOM     37  N   UNL     1     -43.962  39.136  29.142  1.00  0.00    -0.303 N 
ATOM     38  C   UNL     1     -42.995  39.731  29.926  1.00  0.00     0.009 A 
ATOM     39  C   UNL     1     -44.208  39.928  28.044  1.00  0.00     0.147 A 
ATOM     40  C   UNL     1     -42.622  40.912  29.322  1.00  0.00    -0.031 A 
ATOM     41  H   UNL     1     -42.653  39.269  30.843  1.00  0.00     0.082 H 
ATOM     42  C   UNL     1     -43.383  41.044  28.130  1.00  0.00     0.061 A 
ATOM     43  N   UNL     1     -45.090  39.677  27.063  1.00  0.00    -0.218 NA
ATOM     44  H   UNL     1     -41.887  41.610  29.699  1.00  0.00     0.065 H 
ATOM     45  C   UNL     1     -43.482  41.986  27.095  1.00  0.00     0.136 A 
ATOM     46  C   UNL     1     -45.101  40.649  26.137  1.00  0.00     0.120 A 
ATOM     47  N   UNL     1     -44.354  41.768  26.093  1.00  0.00    -0.219 NA
ATOM     48  H   UNL     1     -45.798  40.514  25.316  1.00  0.00     0.106 H 
BRANCH  45  49
ATOM     49  N   UNL     1     -42.712  43.140  27.029  1.00  0.00    -0.383 N 
ATOM     50  H   UNL     1     -42.973  43.855  27.692  1.00  0.00     0.158 HD
ATOM     51  H   UNL     1     -41.727  42.900  26.990  1.00  0.00     0.158 HD
ENDBRANCH  45  49
ENDBRANCH  29  37
ENDBRANCH  22  25
ENDBRANCH   1  22
TORSDOF 8
ENDMDL
MODEL 4
REMARK VINA RESULT:      -8.7      1.779      2.156
REMARK SMILES CNc1ccc2sc(CC[C@H]3O[C@@H](n4ccc5c(N)ncnc54)[C@@H](F)[C@@H]3O)cc2n1
REMARK SMILES IDX 9 1 8 4 3 5 4 6 30 7 5 8 29 10 6 11 28 13 7 14 2 16 1 18
REMARK SMILES IDX 10 22 11 25 12 26 26 27 13 29 24 30 25 33 27 35 14 37 15 38
REMARK SMILES IDX 23 39 16 40 17 42 22 43 18 45 21 46 20 47 19 49
REMARK H PARENT 9 2 9 3 4 9 5 12 28 15 2 17 1 19 1 20 1 21 10 23 10 24 11 28
REMARK H PARENT 26 31 13 32 24 34 27 36 15 41 16 44 21 48 19 50 19 51
REMARK Flexibility Score: inf
ROOT
ATOM      1  C   UNL     1     -46.003  33.675  27.442  1.00  0.00    -0.016 C 
ATOM      2  H   UNL     1     -45.005  33.228  27.539  1.00  0.00     0.033 H 
ATOM      3  H   UNL     1     -46.519  33.461  28.386  1.00  0.00     0.033 H 
ENDROOT
BRANCH   1   4
ATOM      4  C   UNL     1     -46.736  33.014  26.309  1.00  0.00     0.007 A 
ATOM      5  C   UNL     1     -48.007  30.843  22.426  1.00  0.00     0.126 A 
ATOM      6  C   UNL     1     -49.314  30.956  22.895  1.00  0.00    -0.018 A 
ATOM      7  N   UNL     1     -46.948  31.299  23.113  1.00  0.00    -0.230 NA
ATOM      8  C   UNL     1     -49.578  31.580  24.113  1.00  0.00    -0.039 A 
ATOM      9  H   UNL     1     -50.136  30.545  22.317  1.00  0.00     0.066 H 
ATOM     10  C   UNL     1     -47.195  31.913  24.300  1.00  0.00     0.084 A 
ATOM     11  C   UNL     1     -48.477  32.067  24.822  1.00  0.00     0.053 A 
ATOM     12  H   UNL     1     -50.589  31.676  24.493  1.00  0.00     0.064 H 
ATOM     13  C   UNL     1     -46.204  32.467  25.159  1.00  0.00    -0.022 A 
ATOM     14  S   UNL     1     -48.441  32.875  26.336  1.00  0.00    -0.139 S 
ATOM     15  H   UNL     1     -45.143  32.452  24.939  1.00  0.00     0.066 H 
BRANCH   5  16
ATOM     16  N   UNL     1     -47.822  30.175  21.197  1.00  0.00    -0.373 N 
ATOM     17  H   UNL     1     -47.993  29.184  21.335  1.00  0.00     0.161 HD
BRANCH  16  18
ATOM     18  C   UNL     1     -48.616  30.711  20.103  1.00  0.00     0.005 C 
ATOM     19  H   UNL     1     -48.385  30.211  19.155  1.00  0.00     0.045 H 
ATOM     20  H   UNL     1     -49.676  30.533  20.312  1.00  0.00     0.045 H 
ATOM     21  H   UNL     1     -48.478  31.792  19.995  1.00  0.00     0.045 H 
ENDBRANCH  16  18
ENDBRANCH   5  16
ENDBRANCH   1   4
BRANCH   1  22
ATOM     22  C   UNL     1     -45.850  35.188  27.249  1.00  0.00    -0.019 C 
ATOM     23  H   UNL     1     -44.777  35.408  27.233  1.00  0.00     0.030 H 
ATOM     24  H   UNL     1     -46.245  35.486  26.269  1.00  0.00     0.030 H 
BRANCH  22  25
ATOM     25  C   UNL     1     -46.532  36.023  28.342  1.00  0.00     0.090 C 
ATOM     26  O   UNL     1     -45.668  37.112  28.728  1.00  0.00    -0.349 OA
ATOM     27  C   UNL     1     -47.856  36.640  27.869  1.00  0.00     0.116 C 
ATOM     28  H   UNL     1     -46.699  35.410  29.234  1.00  0.00     0.063 H 
ATOM     29  C   UNL     1     -46.309  38.341  28.324  1.00  0.00     0.169 C 
ATOM     30  C   UNL     1     -47.438  38.000  27.361  1.00  0.00     0.173 C 
ATOM     31  H   UNL     1     -48.363  36.037  27.111  1.00  0.00     0.066 H 
ATOM     32  H   UNL     1     -46.737  38.755  29.247  1.00  0.00     0.088 H 
ATOM     33  F   UNL     1     -47.013  37.876  26.078  1.00  0.00    -0.239 F 
ATOM     34  H   UNL     1     -48.232  38.753  27.380  1.00  0.00     0.074 H 
BRANCH  27  35
ATOM     35  O   UNL     1     -48.757  36.817  28.969  1.00  0.00    -0.387 OA
ATOM     36  H   UNL     1     -48.652  37.731  29.293  1.00  0.00     0.211 HD
ENDBRANCH  27  35
BRANCH  29  37
ATOM     37  N   UNL     1     -45.332  39.302  27.845  1.00  0.00    -0.303 N 
ATOM     38  C   UNL     1     -45.403  39.913  26.610  1.00  0.00     0.009 A 
ATOM     39  C   UNL     1     -44.210  39.745  28.507  1.00  0.00     0.147 A 
ATOM     40  C   UNL     1     -44.316  40.752  26.484  1.00  0.00    -0.031 A 
ATOM     41  H   UNL     1     -46.215  39.702  25.925  1.00  0.00     0.082 H 
ATOM     42  C   UNL     1     -43.557  40.654  27.681  1.00  0.00     0.061 A 
ATOM     43  N   UNL     1     -43.808  39.368  29.732  1.00  0.00    -0.218 NA
ATOM     44  H   UNL     1     -44.088  41.365  25.623  1.00  0.00     0.065 H 
ATOM     45  C   UNL     1     -42.377  41.227  28.177  1.00  0.00     0.136 A 
ATOM     46  C   UNL     1     -42.667  39.975  30.094  1.00  0.00     0.120 A 
ATOM     47  N   UNL     1     -41.943  40.875  29.401  1.00  0.00    -0.219 NA
ATOM     48  H   UNL     1     -42.278  39.710  31.073  1.00  0.00     0.106 H 
BRANCH  45  49
ATOM     49  N   UNL     1     -41.625  42.163  27.480  1.00  0.00    -0.383 N 
ATOM     50  H   UNL     1     -41.051  41.775  26.746  1.00  0.00     0.158 HD
ATOM     51  H   UNL     1     -42.204  42.957  27.227  1.00  0.00     0.158 HD
ENDBRANCH  45  49
ENDBRANCH  29  37
ENDBRANCH  22  25
ENDBRANCH   1  22
TORSDOF 8
ENDMDL
MODEL 5
REMARK VINA RESULT:      -8.6      4.395     11.106
REMARK SMILES CNc1ccc2sc(CC[C@H]3O[C@@H](n4ccc5c(N)ncnc54)[C@@H](F)[C@@H]3O)cc2n1
REMARK SMILES IDX 9 1 8 4 3 5 4 6 30 7 5 8 29 10 6 11 28 13 7 14 2 16 1 18
REMARK SMILES IDX 10 22 11 25 12 26 26 27 13 29 24 30 25 33 27 35 14 37 15 38
REMARK SMILES IDX 23 39 16 40 17 42 22 43 18 45 21 46 20 47 19 49
REMARK H PARENT 9 2 9 3 4 9 5 12 28 15 2 17 1 19 1 20 1 21 10 23 10 24 11 28
REMARK H PARENT 26 31 13 32 24 34 27 36 15 41 16 44 21 48 19 50 19 51
REMARK Flexibility Score: inf
ROOT
ATOM      1  C   UNL     1     -48.590  31.409  25.876  1.00  0.00    -0.016 C 
ATOM      2  H   UNL     1     -49.444  31.125  26.506  1.00  0.00     0.033 H 
ATOM      3  H   UNL     1     -47.829  30.635  26.038  1.00  0.00     0.033 H 
ENDROOT
BRANCH   1   4
ATOM      4  C   UNL     1     -48.058  32.739  26.328  1.00  0.00     0.007 A 
ATOM      5  C   UNL     1     -47.417  37.162  27.523  1.00  0.00     0.126 A 
ATOM      6  C   UNL     1     -46.108  36.798  27.833  1.00  0.00    -0.018 A 
ATOM      7  N   UNL     1     -48.325  36.286  27.064  1.00  0.00    -0.230 NA
ATOM      8  C   UNL     1     -45.678  35.484  27.654  1.00  0.00    -0.039 A 
ATOM      9  H   UNL     1     -45.418  37.536  28.229  1.00  0.00     0.066 H 
ATOM     10  C   UNL     1     -47.914  35.004  26.883  1.00  0.00     0.084 A 
ATOM     11  C   UNL     1     -46.619  34.575  27.164  1.00  0.00     0.053 A 
ATOM     12  H   UNL     1     -44.664  35.183  27.891  1.00  0.00     0.064 H 
ATOM     13  C   UNL     1     -48.729  33.942  26.396  1.00  0.00    -0.022 A 
ATOM     14  S   UNL     1     -46.432  32.901  26.833  1.00  0.00    -0.139 S 
ATOM     15  H   UNL     1     -49.769  34.064  26.118  1.00  0.00     0.066 H 
BRANCH   5  16
ATOM     16  N   UNL     1     -47.780  38.505  27.756  1.00  0.00    -0.373 N 
ATOM     17  H   UNL     1     -47.782  38.674  28.758  1.00  0.00     0.161 HD
BRANCH  16  18
ATOM     18  C   UNL     1     -46.962  39.476  27.048  1.00  0.00     0.005 C 
ATOM     19  H   UNL     1     -46.145  38.992  26.500  1.00  0.00     0.045 H 
ATOM     20  H   UNL     1     -47.584  39.994  26.310  1.00  0.00     0.045 H 
ATOM     21  H   UNL     1     -46.554  40.233  27.727  1.00  0.00     0.045 H 
ENDBRANCH  16  18
ENDBRANCH   5  16
ENDBRANCH   1   4
BRANCH   1  22
ATOM     22  C   UNL     1     -49.040  31.415  24.410  1.00  0.00    -0.019 C 
ATOM     23  H   UNL     1     -49.739  30.582  24.279  1.00  0.00     0.030 H 
ATOM     24  H   UNL     1     -49.603  32.332  24.191  1.00  0.00     0.030 H 
BRANCH  22  25
ATOM     25  C   UNL     1     -47.885  31.283  23.408  1.00  0.00     0.090 C 
ATOM     26  O   UNL     1     -46.903  30.358  23.922  1.00  0.00    -0.349 OA
ATOM     27  C   UNL     1     -48.347  30.742  22.047  1.00  0.00     0.116 C 
ATOM     28  H   UNL     1     -47.385  32.248  23.280  1.00  0.00     0.063 H 
ATOM     29  C   UNL     1     -46.900  29.200  23.059  1.00  0.00     0.169 C 
ATOM     30  C   UNL     1     -48.145  29.251  22.184  1.00  0.00     0.173 C 
ATOM     31  H   UNL     1     -49.378  31.015  21.806  1.00  0.00     0.066 H 
ATOM     32  H   UNL     1     -46.011  29.320  22.426  1.00  0.00     0.088 H 
ATOM     33  F   UNL     1     -49.235  28.716  22.790  1.00  0.00    -0.239 F 
ATOM     34  H   UNL     1     -47.997  28.727  21.234  1.00  0.00     0.074 H 
BRANCH  27  35
ATOM     35  O   UNL     1     -47.504  31.226  20.994  1.00  0.00    -0.387 OA
ATOM     36  H   UNL     1     -48.082  31.586  20.295  1.00  0.00     0.211 HD
ENDBRANCH  27  35
BRANCH  29  37
ATOM     37  N   UNL     1     -46.710  27.983  23.826  1.00  0.00    -0.303 N 
ATOM     38  C   UNL     1     -45.645  27.124  23.645  1.00  0.00     0.009 A 
ATOM     39  C   UNL     1     -47.527  27.490  24.818  1.00  0.00     0.147 A 
ATOM     40  C   UNL     1     -45.786  26.075  24.528  1.00  0.00    -0.031 A 
ATOM     41  H   UNL     1     -44.880  27.327  22.906  1.00  0.00     0.082 H 
ATOM     42  C   UNL     1     -46.973  26.300  25.276  1.00  0.00     0.061 A 
ATOM     43  N   UNL     1     -48.662  28.051  25.265  1.00  0.00    -0.218 NA
ATOM     44  H   UNL     1     -45.112  25.235  24.623  1.00  0.00     0.065 H 
ATOM     45  C   UNL     1     -47.662  25.633  26.299  1.00  0.00     0.136 A 
ATOM     46  C   UNL     1     -49.235  27.320  26.234  1.00  0.00     0.120 A 
ATOM     47  N   UNL     1     -48.803  26.165  26.775  1.00  0.00    -0.219 NA
ATOM     48  H   UNL     1     -50.163  27.712  26.639  1.00  0.00     0.106 H 
BRANCH  45  49
ATOM     49  N   UNL     1     -47.225  24.447  26.874  1.00  0.00    -0.383 N 
ATOM     50  H   UNL     1     -47.292  23.640  26.270  1.00  0.00     0.158 HD
ATOM     51  H   UNL     1     -46.334  24.590  27.335  1.00  0.00     0.158 HD
ENDBRANCH  45  49
ENDBRANCH  29  37
ENDBRANCH  22  25
ENDBRANCH   1  22
TORSDOF 8
ENDMDL
MODEL 6
REMARK VINA RESULT:      -8.6      1.639      2.119
REMARK SMILES CNc1ccc2sc(CC[C@H]3O[C@@H](n4ccc5c(N)ncnc54)[C@@H](F)[C@@H]3O)cc2n1
REMARK SMILES IDX 9 1 8 4 3 5 4 6 30 7 5 8 29 10 6 11 28 13 7 14 2 16 1 18
REMARK SMILES IDX 10 22 11 25 12 26 26 27 13 29 24 30 25 33 27 35 14 37 15 38
REMARK SMILES IDX 23 39 16 40 17 42 22 43 18 45 21 46 20 47 19 49
REMARK H PARENT 9 2 9 3 4 9 5 12 28 15 2 17 1 19 1 20 1 21 10 23 10 24 11 28
REMARK H PARENT 26 31 13 32 24 34 27 36 15 41 16 44 21 48 19 50 19 51
REMARK Flexibility Score: inf
ROOT
ATOM      1  C   UNL     1     -47.950  34.146  26.488  1.00  0.00    -0.016 C 
ATOM      2  H   UNL     1     -47.981  33.901  27.558  1.00  0.00     0.033 H 
ATOM      3  H   UNL     1     -48.928  34.583  26.253  1.00  0.00     0.033 H 
ENDROOT
BRANCH   1   4
ATOM      4  C   UNL     1     -47.762  32.884  25.694  1.00  0.00     0.007 A 
ATOM      5  C   UNL     1     -48.071  28.691  23.763  1.00  0.00     0.126 A 
ATOM      6  C   UNL     1     -46.933  29.038  23.037  1.00  0.00    -0.018 A 
ATOM      7  N   UNL     1     -48.652  29.523  24.642  1.00  0.00    -0.230 NA
ATOM      8  C   UNL     1     -46.331  30.282  23.217  1.00  0.00    -0.039 A 
ATOM      9  H   UNL     1     -46.516  28.342  22.316  1.00  0.00     0.066 H 
ATOM     10  C   UNL     1     -48.070  30.736  24.826  1.00  0.00     0.084 A 
ATOM     11  C   UNL     1     -46.928  31.143  24.141  1.00  0.00     0.053 A 
ATOM     12  H   UNL     1     -45.446  30.568  22.660  1.00  0.00     0.064 H 
ATOM     13  C   UNL     1     -48.536  31.742  25.721  1.00  0.00    -0.022 A 
ATOM     14  S   UNL     1     -46.457  32.728  24.600  1.00  0.00    -0.139 S 
ATOM     15  H   UNL     1     -49.411  31.627  26.350  1.00  0.00     0.066 H 
BRANCH   5  16
ATOM     16  N   UNL     1     -48.634  27.424  23.504  1.00  0.00    -0.373 N 
ATOM     17  H   UNL     1     -47.957  26.708  23.751  1.00  0.00     0.161 HD
BRANCH  16  18
ATOM     18  C   UNL     1     -49.916  27.198  24.152  1.00  0.00     0.005 C 
ATOM     19  H   UNL     1     -50.741  27.632  23.576  1.00  0.00     0.045 H 
ATOM     20  H   UNL     1     -50.098  26.119  24.214  1.00  0.00     0.045 H 
ATOM     21  H   UNL     1     -49.928  27.594  25.174  1.00  0.00     0.045 H 
ENDBRANCH  16  18
ENDBRANCH   5  16
ENDBRANCH   1   4
BRANCH   1  22
ATOM     22  C   UNL     1     -46.836  35.171  26.248  1.00  0.00    -0.019 C 
ATOM     23  H   UNL     1     -46.112  34.713  25.566  1.00  0.00     0.030 H 
ATOM     24  H   UNL     1     -47.238  36.053  25.732  1.00  0.00     0.030 H 
BRANCH  22  25
ATOM     25  C   UNL     1     -46.124  35.620  27.532  1.00  0.00     0.090 C 
ATOM     26  O   UNL     1     -45.574  36.940  27.343  1.00  0.00    -0.349 OA
ATOM     27  C   UNL     1     -47.074  35.694  28.736  1.00  0.00     0.116 C 
ATOM     28  H   UNL     1     -45.287  34.949  27.752  1.00  0.00     0.063 H 
ATOM     29  C   UNL     1     -46.286  37.840  28.219  1.00  0.00     0.169 C 
ATOM     30  C   UNL     1     -47.537  37.132  28.719  1.00  0.00     0.173 C 
ATOM     31  H   UNL     1     -47.898  34.977  28.675  1.00  0.00     0.066 H 
ATOM     32  H   UNL     1     -45.607  38.009  29.066  1.00  0.00     0.088 H 
ATOM     33  F   UNL     1     -48.582  37.245  27.860  1.00  0.00    -0.239 F 
ATOM     34  H   UNL     1     -47.860  37.513  29.693  1.00  0.00     0.074 H 
BRANCH  27  35
ATOM     35  O   UNL     1     -46.367  35.452  29.959  1.00  0.00    -0.387 OA
ATOM     36  H   UNL     1     -46.910  34.850  30.500  1.00  0.00     0.211 HD
ENDBRANCH  27  35
BRANCH  29  37
ATOM     37  N   UNL     1     -46.494  39.128  27.583  1.00  0.00    -0.303 N 
ATOM     38  C   UNL     1     -47.741  39.641  27.287  1.00  0.00     0.009 A 
ATOM     39  C   UNL     1     -45.528  40.017  27.173  1.00  0.00     0.147 A 
ATOM     40  C   UNL     1     -47.566  40.868  26.684  1.00  0.00    -0.031 A 
ATOM     41  H   UNL     1     -48.644  39.096  27.528  1.00  0.00     0.082 H 
ATOM     42  C   UNL     1     -46.169  41.115  26.609  1.00  0.00     0.061 A 
ATOM     43  N   UNL     1     -44.199  39.858  27.289  1.00  0.00    -0.218 NA
ATOM     44  H   UNL     1     -48.356  41.515  26.329  1.00  0.00     0.065 H 
ATOM     45  C   UNL     1     -45.351  42.146  26.124  1.00  0.00     0.136 A 
ATOM     46  C   UNL     1     -43.523  40.902  26.785  1.00  0.00     0.120 A 
ATOM     47  N   UNL     1     -44.014  42.023  26.224  1.00  0.00    -0.219 NA
ATOM     48  H   UNL     1     -42.440  40.837  26.838  1.00  0.00     0.106 H 
BRANCH  45  49
ATOM     49  N   UNL     1     -45.842  43.313  25.554  1.00  0.00    -0.383 N 
ATOM     50  H   UNL     1     -46.331  43.919  26.197  1.00  0.00     0.158 HD
ATOM     51  H   UNL     1     -45.128  43.748  24.980  1.00  0.00     0.158 HD
ENDBRANCH  45  49
ENDBRANCH  29  37
ENDBRANCH  22  25
ENDBRANCH   1  22
TORSDOF 8
ENDMDL
MODEL 7
REMARK VINA RESULT:      -8.5      1.773      2.217
REMARK SMILES CNc1ccc2sc(CC[C@H]3O[C@@H](n4ccc5c(N)ncnc54)[C@@H](F)[C@@H]3O)cc2n1
REMARK SMILES IDX 9 1 8 4 3 5 4 6 30 7 5 8 29 10 6 11 28 13 7 14 2 16 1 18
REMARK SMILES IDX 10 22 11 25 12 26 26 27 13 29 24 30 25 33 27 35 14 37 15 38
REMARK SMILES IDX 23 39 16 40 17 42 22 43 18 45 21 46 20 47 19 49
REMARK H PARENT 9 2 9 3 4 9 5 12 28 15 2 17 1 19 1 20 1 21 10 23 10 24 11 28
REMARK H PARENT 26 31 13 32 24 34 27 36 15 41 16 44 21 48 19 50 19 51
REMARK Flexibility Score: inf
ROOT
ATOM      1  C   UNL     1     -47.812  36.105  27.010  1.00  0.00    -0.016 C 
ATOM      2  H   UNL     1     -47.894  35.988  28.099  1.00  0.00     0.033 H 
ATOM      3  H   UNL     1     -48.705  36.664  26.703  1.00  0.00     0.033 H 
ENDROOT
BRANCH   1   4
ATOM      4  C   UNL     1     -47.820  34.751  26.362  1.00  0.00     0.007 A 
ATOM      5  C   UNL     1     -46.835  30.829  24.114  1.00  0.00     0.126 A 
ATOM      6  C   UNL     1     -48.130  30.424  24.433  1.00  0.00    -0.018 A 
ATOM      7  N   UNL     1     -46.332  32.015  24.491  1.00  0.00    -0.230 NA
ATOM      8  C   UNL     1     -48.977  31.263  25.153  1.00  0.00    -0.039 A 
ATOM      9  H   UNL     1     -48.482  29.442  24.130  1.00  0.00     0.066 H 
ATOM     10  C   UNL     1     -47.152  32.842  25.191  1.00  0.00     0.084 A 
ATOM     11  C   UNL     1     -48.458  32.503  25.535  1.00  0.00     0.053 A 
ATOM     12  H   UNL     1     -49.986  30.964  25.410  1.00  0.00     0.064 H 
ATOM     13  C   UNL     1     -46.799  34.138  25.665  1.00  0.00    -0.022 A 
ATOM     14  S   UNL     1     -49.216  33.763  26.422  1.00  0.00    -0.139 S 
ATOM     15  H   UNL     1     -45.828  34.591  25.504  1.00  0.00     0.066 H 
BRANCH   5  16
ATOM     16  N   UNL     1     -46.033  29.910  23.404  1.00  0.00    -0.373 N 
ATOM     17  H   UNL     1     -45.101  29.910  23.808  1.00  0.00     0.161 HD
BRANCH  16  18
ATOM     18  C   UNL     1     -46.587  28.568  23.329  1.00  0.00     0.005 C 
ATOM     19  H   UNL     1     -47.648  28.555  23.602  1.00  0.00     0.045 H 
ATOM     20  H   UNL     1     -46.513  28.210  22.297  1.00  0.00     0.045 H 
ATOM     21  H   UNL     1     -46.033  27.867  23.963  1.00  0.00     0.045 H 
ENDBRANCH  16  18
ENDBRANCH   5  16
ENDBRANCH   1   4
BRANCH   1  22
ATOM     22  C   UNL     1     -46.545  36.909  26.695  1.00  0.00    -0.019 C 
ATOM     23  H   UNL     1     -45.852  36.236  26.180  1.00  0.00     0.030 H 
ATOM     24  H   UNL     1     -46.777  37.719  25.991  1.00  0.00     0.030 H 
BRANCH  22  25
ATOM     25  C   UNL     1     -45.864  37.501  27.937  1.00  0.00     0.090 C 
ATOM     26  O   UNL     1     -44.916  38.510  27.533  1.00  0.00    -0.349 OA
ATOM     27  C   UNL     1     -46.863  38.174  28.890  1.00  0.00     0.116 C 
ATOM     28  H   UNL     1     -45.304  36.723  28.466  1.00  0.00     0.063 H 
ATOM     29  C   UNL     1     -45.400  39.783  28.015  1.00  0.00     0.169 C 
ATOM     30  C   UNL     1     -46.854  39.615  28.435  1.00  0.00     0.173 C 
ATOM     31  H   UNL     1     -47.858  37.721  28.857  1.00  0.00     0.066 H 
ATOM     32  H   UNL     1     -44.792  40.000  28.903  1.00  0.00     0.088 H 
ATOM     33  F   UNL     1     -47.718  39.752  27.397  1.00  0.00    -0.239 F 
ATOM     34  H   UNL     1     -47.141  40.334  29.208  1.00  0.00     0.074 H 
BRANCH  27  35
ATOM     35  O   UNL     1     -46.395  38.116  30.243  1.00  0.00    -0.387 OA
ATOM     36  H   UNL     1     -45.420  38.096  30.217  1.00  0.00     0.211 HD
ENDBRANCH  27  35
BRANCH  29  37
ATOM     37  N   UNL     1     -45.133  40.837  27.053  1.00  0.00    -0.303 N 
ATOM     38  C   UNL     1     -46.094  41.376  26.223  1.00  0.00     0.009 A 
ATOM     39  C   UNL     1     -43.925  41.449  26.807  1.00  0.00     0.147 A 
ATOM     40  C   UNL     1     -45.494  42.339  25.441  1.00  0.00    -0.031 A 
ATOM     41  H   UNL     1     -47.120  41.032  26.255  1.00  0.00     0.082 H 
ATOM     42  C   UNL     1     -44.121  42.394  25.805  1.00  0.00     0.061 A 
ATOM     43  N   UNL     1     -42.759  41.182  27.417  1.00  0.00    -0.218 NA
ATOM     44  H   UNL     1     -45.985  42.936  24.686  1.00  0.00     0.065 H 
ATOM     45  C   UNL     1     -43.000  43.134  25.405  1.00  0.00     0.136 A 
ATOM     46  C   UNL     1     -41.760  41.945  26.946  1.00  0.00     0.120 A 
ATOM     47  N   UNL     1     -41.814  42.897  25.994  1.00  0.00    -0.219 NA
ATOM     48  H   UNL     1     -40.784  41.778  27.391  1.00  0.00     0.106 H 
BRANCH  45  49
ATOM     49  N   UNL     1     -43.040  44.125  24.433  1.00  0.00    -0.383 N 
ATOM     50  H   UNL     1     -43.939  44.235  23.985  1.00  0.00     0.158 HD
ATOM     51  H   UNL     1     -42.604  44.972  24.780  1.00  0.00     0.158 HD
ENDBRANCH  45  49
ENDBRANCH  29  37
ENDBRANCH  22  25
ENDBRANCH   1  22
TORSDOF 8
ENDMDL
