MODEL 1
REMARK VINA RESULT:     -10.5      0.000      0.000
REMARK SMILES O=C(NCc1ccc2cc(CNCC3(O)CCC3)[nH]c2c1)c1cc(=O)n2ccccc2n1
REMARK SMILES IDX 11 1 10 4 5 5 6 6 21 7 7 8 20 10 8 12 19 14 9 15 4 18 3 21
REMARK SMILES IDX 1 22 2 23 22 25 23 26 32 27 24 28 31 30 25 31 26 32 30 33
REMARK SMILES IDX 27 34 29 35 28 37 12 41 13 43 14 46 16 47 18 48 17 49 15 56
REMARK H PARENT 11 2 11 3 6 9 21 11 7 13 19 16 9 17 4 19 4 20 3 24 23 29 30 36
REMARK H PARENT 27 38 29 39 28 40 12 42 13 44 13 45 16 50 16 51 18 52 18 53
REMARK H PARENT 17 54 17 55 15 57
REMARK Flexibility Score: inf
ROOT
ATOM      1  C   UNL     1     -48.738  29.470  24.872  1.00  0.00     0.036 C 
ATOM      2  H   UNL     1     -49.209  29.040  25.765  1.00  0.00     0.049 H 
ATOM      3  H   UNL     1     -49.486  29.530  24.075  1.00  0.00     0.049 H 
ENDROOT
BRANCH   1   4
ATOM      4  C   UNL     1     -48.280  30.857  25.173  1.00  0.00     0.030 A 
ATOM      5  C   UNL     1     -47.989  35.221  26.665  1.00  0.00    -0.027 A 
ATOM      6  C   UNL     1     -46.729  35.120  26.060  1.00  0.00    -0.057 A 
ATOM      7  C   UNL     1     -48.859  34.118  26.663  1.00  0.00    -0.033 A 
ATOM      8  C   UNL     1     -46.321  33.938  25.430  1.00  0.00    -0.052 A 
ATOM      9  H   UNL     1     -46.047  35.969  26.075  1.00  0.00     0.063 H 
ATOM     10  C   UNL     1     -48.432  32.943  26.029  1.00  0.00     0.046 A 
ATOM     11  H   UNL     1     -49.832  34.172  27.142  1.00  0.00     0.065 H 
ATOM     12  C   UNL     1     -47.188  32.831  25.412  1.00  0.00    -0.000 A 
ATOM     13  H   UNL     1     -45.343  33.878  24.961  1.00  0.00     0.063 H 
ATOM     14  N   UNL     1     -49.070  31.736  25.874  1.00  0.00    -0.357 N 
ATOM     15  C   UNL     1     -47.103  31.514  24.878  1.00  0.00    -0.032 A 
ATOM     16  H   UNL     1     -50.005  31.521  26.194  1.00  0.00     0.166 HD
ATOM     17  H   UNL     1     -46.266  31.096  24.335  1.00  0.00     0.065 H 
BRANCH   5  18
ATOM     18  C   UNL     1     -48.393  36.492  27.364  1.00  0.00     0.043 C 
ATOM     19  H   UNL     1     -49.201  36.998  26.822  1.00  0.00     0.054 H 
ATOM     20  H   UNL     1     -48.774  36.280  28.370  1.00  0.00     0.054 H 
BRANCH  18  21
ATOM     21  N   UNL     1     -47.279  37.396  27.467  1.00  0.00    -0.347 N 
ATOM     22  O   UNL     1     -46.611  36.719  29.556  1.00  0.00    -0.268 OA
ATOM     23  C   UNL     1     -46.485  37.453  28.583  1.00  0.00     0.270 C 
ATOM     24  H   UNL     1     -47.113  38.088  26.742  1.00  0.00     0.164 HD
BRANCH  23  25
ATOM     25  C   UNL     1     -45.432  38.531  28.487  1.00  0.00     0.136 A 
ATOM     26  C   UNL     1     -44.530  38.570  29.470  1.00  0.00     0.035 A 
ATOM     27  N   UNL     1     -45.463  39.393  27.416  1.00  0.00    -0.225 NA
ATOM     28  C   UNL     1     -43.489  39.603  29.417  1.00  0.00     0.258 A 
ATOM     29  H   UNL     1     -44.517  37.886  30.309  1.00  0.00     0.071 H 
ATOM     30  C   UNL     1     -44.541  40.305  27.372  1.00  0.00     0.140 A 
ATOM     31  O   UNL     1     -42.653  39.647  30.318  1.00  0.00    -0.269 OA
ATOM     32  N   UNL     1     -43.542  40.459  28.327  1.00  0.00    -0.268 N 
ATOM     33  C   UNL     1     -44.535  41.261  26.228  1.00  0.00    -0.019 A 
ATOM     34  C   UNL     1     -42.587  41.465  28.207  1.00  0.00     0.014 A 
ATOM     35  C   UNL     1     -43.595  42.212  26.157  1.00  0.00    -0.057 A 
ATOM     36  H   UNL     1     -45.310  41.148  25.480  1.00  0.00     0.066 H 
ATOM     37  C   UNL     1     -42.588  42.320  27.178  1.00  0.00    -0.045 A 
ATOM     38  H   UNL     1     -41.835  41.527  28.991  1.00  0.00     0.082 H 
ATOM     39  H   UNL     1     -43.575  42.917  25.332  1.00  0.00     0.062 H 
ATOM     40  H   UNL     1     -41.839  43.101  27.095  1.00  0.00     0.064 H 
ENDBRANCH  23  25
ENDBRANCH  18  21
ENDBRANCH   5  18
ENDBRANCH   1   4
BRANCH   1  41
ATOM     41  N   UNL     1     -47.584  28.675  24.453  1.00  0.00    -0.308 NA
ATOM     42  H   UNL     1     -46.775  29.040  24.955  1.00  0.00     0.123 HD
BRANCH  41  43
ATOM     43  C   UNL     1     -47.724  27.252  24.815  1.00  0.00     0.024 C 
ATOM     44  H   UNL     1     -48.323  26.791  24.019  1.00  0.00     0.046 H 
ATOM     45  H   UNL     1     -46.748  26.753  24.781  1.00  0.00     0.046 H 
BRANCH  43  46
ATOM     46  C   UNL     1     -48.405  27.000  26.178  1.00  0.00     0.077 C 
ATOM     47  C   UNL     1     -48.319  25.512  26.642  1.00  0.00    -0.023 C 
ATOM     48  C   UNL     1     -49.953  26.807  26.150  1.00  0.00    -0.023 C 
ATOM     49  C   UNL     1     -49.721  25.290  26.048  1.00  0.00    -0.048 C 
ATOM     50  H   UNL     1     -47.525  24.907  26.196  1.00  0.00     0.030 H 
ATOM     51  H   UNL     1     -48.280  25.387  27.730  1.00  0.00     0.030 H 
ATOM     52  H   UNL     1     -50.455  27.111  27.076  1.00  0.00     0.030 H 
ATOM     53  H   UNL     1     -50.491  27.248  25.307  1.00  0.00     0.030 H 
ATOM     54  H   UNL     1     -50.394  24.668  26.644  1.00  0.00     0.027 H 
ATOM     55  H   UNL     1     -49.711  24.913  25.020  1.00  0.00     0.027 H 
BRANCH  46  56
ATOM     56  O   UNL     1     -47.913  27.946  27.161  1.00  0.00    -0.389 OA
ATOM     57  H   UNL     1     -48.469  28.737  27.060  1.00  0.00     0.211 HD
ENDBRANCH  46  56
ENDBRANCH  43  46
ENDBRANCH  41  43
ENDBRANCH   1  41
TORSDOF 8
ENDMDL
MODEL 2
REMARK VINA RESULT:     -10.4      2.330      3.509
REMARK SMILES O=C(NCc1ccc2cc(CNCC3(O)CCC3)[nH]c2c1)c1cc(=O)n2ccccc2n1
REMARK SMILES IDX 11 1 10 4 5 5 6 6 21 7 7 8 20 10 8 12 19 14 9 15 4 18 3 21
REMARK SMILES IDX 1 22 2 23 22 25 23 26 32 27 24 28 31 30 25 31 26 32 30 33
REMARK SMILES IDX 27 34 29 35 28 37 12 41 13 43 14 46 16 47 18 48 17 49 15 56
REMARK H PARENT 11 2 11 3 6 9 21 11 7 13 19 16 9 17 4 19 4 20 3 24 23 29 30 36
REMARK H PARENT 27 38 29 39 28 40 12 42 13 44 13 45 16 50 16 51 18 52 18 53
REMARK H PARENT 17 54 17 55 15 57
REMARK Flexibility Score: inf
ROOT
ATOM      1  C   UNL     1     -46.125  32.246  24.734  1.00  0.00     0.036 C 
ATOM      2  H   UNL     1     -45.288  32.554  24.097  1.00  0.00     0.049 H 
ATOM      3  H   UNL     1     -45.793  31.427  25.380  1.00  0.00     0.049 H 
ENDROOT
BRANCH   1   4
ATOM      4  C   UNL     1     -46.526  33.384  25.611  1.00  0.00     0.030 A 
ATOM      5  C   UNL     1     -46.529  36.929  28.576  1.00  0.00    -0.027 A 
ATOM      6  C   UNL     1     -47.896  36.910  28.267  1.00  0.00    -0.057 A 
ATOM      7  C   UNL     1     -45.660  36.006  27.970  1.00  0.00    -0.033 A 
ATOM      8  C   UNL     1     -48.425  35.969  27.375  1.00  0.00    -0.052 A 
ATOM      9  H   UNL     1     -48.568  37.636  28.723  1.00  0.00     0.063 H 
ATOM     10  C   UNL     1     -46.207  35.074  27.079  1.00  0.00     0.046 A 
ATOM     11  H   UNL     1     -44.596  36.017  28.184  1.00  0.00     0.065 H 
ATOM     12  C   UNL     1     -47.565  35.033  26.771  1.00  0.00    -0.000 A 
ATOM     13  H   UNL     1     -49.487  35.965  27.151  1.00  0.00     0.063 H 
ATOM     14  N   UNL     1     -45.601  34.070  26.361  1.00  0.00    -0.357 N 
ATOM     15  C   UNL     1     -47.754  33.968  25.847  1.00  0.00    -0.032 A 
ATOM     16  H   UNL     1     -44.618  33.834  26.398  1.00  0.00     0.166 HD
ATOM     17  H   UNL     1     -48.693  33.663  25.403  1.00  0.00     0.065 H 
BRANCH   5  18
ATOM     18  C   UNL     1     -45.979  37.971  29.514  1.00  0.00     0.043 C 
ATOM     19  H   UNL     1     -46.789  38.510  30.020  1.00  0.00     0.054 H 
ATOM     20  H   UNL     1     -45.371  37.507  30.300  1.00  0.00     0.054 H 
BRANCH  18  21
ATOM     21  N   UNL     1     -45.172  38.925  28.802  1.00  0.00    -0.347 N 
ATOM     22  O   UNL     1     -46.926  40.130  27.941  1.00  0.00    -0.268 OA
ATOM     23  C   UNL     1     -45.722  39.924  28.041  1.00  0.00     0.270 C 
ATOM     24  H   UNL     1     -44.163  38.818  28.770  1.00  0.00     0.164 HD
BRANCH  23  25
ATOM     25  C   UNL     1     -44.677  40.748  27.328  1.00  0.00     0.136 A 
ATOM     26  C   UNL     1     -43.474  40.809  27.902  1.00  0.00     0.035 A 
ATOM     27  N   UNL     1     -45.019  41.377  26.153  1.00  0.00    -0.225 NA
ATOM     28  C   UNL     1     -42.429  41.601  27.242  1.00  0.00     0.258 A 
ATOM     29  H   UNL     1     -43.217  40.310  28.828  1.00  0.00     0.071 H 
ATOM     30  C   UNL     1     -44.093  42.076  25.573  1.00  0.00     0.140 A 
ATOM     31  O   UNL     1     -41.316  41.662  27.763  1.00  0.00    -0.269 OA
ATOM     32  N   UNL     1     -42.799  42.224  26.059  1.00  0.00    -0.268 N 
ATOM     33  C   UNL     1     -44.419  42.774  24.297  1.00  0.00    -0.019 A 
ATOM     34  C   UNL     1     -41.862  42.992  25.376  1.00  0.00     0.014 A 
ATOM     35  C   UNL     1     -43.483  43.502  23.675  1.00  0.00    -0.057 A 
ATOM     36  H   UNL     1     -45.425  42.664  23.910  1.00  0.00     0.066 H 
ATOM     37  C   UNL     1     -42.161  43.617  24.231  1.00  0.00    -0.045 A 
ATOM     38  H   UNL     1     -40.869  43.065  25.814  1.00  0.00     0.082 H 
ATOM     39  H   UNL     1     -43.701  44.017  22.746  1.00  0.00     0.062 H 
ATOM     40  H   UNL     1     -41.422  44.214  23.706  1.00  0.00     0.064 H 
ENDBRANCH  23  25
ENDBRANCH  18  21
ENDBRANCH   5  18
ENDBRANCH   1   4
BRANCH   1  41
ATOM     41  N   UNL     1     -47.279  31.846  23.929  1.00  0.00    -0.308 NA
ATOM     42  H   UNL     1     -46.962  31.804  22.959  1.00  0.00     0.123 HD
BRANCH  41  43
ATOM     43  C   UNL     1     -47.774  30.505  24.290  1.00  0.00     0.024 C 
ATOM     44  H   UNL     1     -47.339  30.271  25.269  1.00  0.00     0.046 H 
ATOM     45  H   UNL     1     -48.861  30.528  24.443  1.00  0.00     0.046 H 
BRANCH  43  46
ATOM     46  C   UNL     1     -47.403  29.391  23.287  1.00  0.00     0.077 C 
ATOM     47  C   UNL     1     -47.523  29.840  21.797  1.00  0.00    -0.023 C 
ATOM     48  C   UNL     1     -48.519  28.349  22.968  1.00  0.00    -0.023 C 
ATOM     49  C   UNL     1     -48.930  29.218  21.766  1.00  0.00    -0.048 C 
ATOM     50  H   UNL     1     -47.488  30.917  21.608  1.00  0.00     0.030 H 
ATOM     51  H   UNL     1     -46.811  29.347  21.125  1.00  0.00     0.030 H 
ATOM     52  H   UNL     1     -48.138  27.362  22.683  1.00  0.00     0.030 H 
ATOM     53  H   UNL     1     -49.297  28.212  23.723  1.00  0.00     0.030 H 
ATOM     54  H   UNL     1     -49.186  28.672  20.854  1.00  0.00     0.027 H 
ATOM     55  H   UNL     1     -49.733  29.928  21.989  1.00  0.00     0.027 H 
BRANCH  46  56
ATOM     56  O   UNL     1     -46.107  28.832  23.623  1.00  0.00    -0.389 OA
ATOM     57  H   UNL     1     -46.022  28.031  23.077  1.00  0.00     0.211 HD
ENDBRANCH  46  56
ENDBRANCH  43  46
ENDBRANCH  41  43
ENDBRANCH   1  41
TORSDOF 8
ENDMDL
MODEL 3
REMARK VINA RESULT:     -10.3      1.750     11.818
REMARK SMILES O=C(NCc1ccc2cc(CNCC3(O)CCC3)[nH]c2c1)c1cc(=O)n2ccccc2n1
REMARK SMILES IDX 11 1 10 4 5 5 6 6 21 7 7 8 20 10 8 12 19 14 9 15 4 18 3 21
REMARK SMILES IDX 1 22 2 23 22 25 23 26 32 27 24 28 31 30 25 31 26 32 30 33
REMARK SMILES IDX 27 34 29 35 28 37 12 41 13 43 14 46 16 47 18 48 17 49 15 56
REMARK H PARENT 11 2 11 3 6 9 21 11 7 13 19 16 9 17 4 19 4 20 3 24 23 29 30 36
REMARK H PARENT 27 38 29 39 28 40 12 42 13 44 13 45 16 50 16 51 18 52 18 53
REMARK H PARENT 17 54 17 55 15 57
REMARK Flexibility Score: inf
ROOT
ATOM      1  C   UNL     1     -46.042  39.311  28.597  1.00  0.00     0.036 C 
ATOM      2  H   UNL     1     -46.448  40.025  27.869  1.00  0.00     0.049 H 
ATOM      3  H   UNL     1     -46.590  39.419  29.538  1.00  0.00     0.049 H 
ENDROOT
BRANCH   1   4
ATOM      4  C   UNL     1     -46.259  37.921  28.101  1.00  0.00     0.030 A 
ATOM      5  C   UNL     1     -48.124  34.020  26.468  1.00  0.00    -0.027 A 
ATOM      6  C   UNL     1     -46.791  33.596  26.557  1.00  0.00    -0.057 A 
ATOM      7  C   UNL     1     -48.469  35.332  26.834  1.00  0.00    -0.033 A 
ATOM      8  C   UNL     1     -45.787  34.454  27.025  1.00  0.00    -0.052 A 
ATOM      9  H   UNL     1     -46.519  32.584  26.259  1.00  0.00     0.063 H 
ATOM     10  C   UNL     1     -47.452  36.176  27.298  1.00  0.00     0.046 A 
ATOM     11  H   UNL     1     -49.493  35.683  26.755  1.00  0.00     0.065 H 
ATOM     12  C   UNL     1     -46.124  35.766  27.404  1.00  0.00    -0.000 A 
ATOM     13  H   UNL     1     -44.761  34.108  27.093  1.00  0.00     0.063 H 
ATOM     14  N   UNL     1     -47.505  37.483  27.720  1.00  0.00    -0.357 N 
ATOM     15  C   UNL     1     -45.383  36.872  27.909  1.00  0.00    -0.032 A 
ATOM     16  H   UNL     1     -48.343  38.045  27.783  1.00  0.00     0.166 HD
ATOM     17  H   UNL     1     -44.320  36.893  28.110  1.00  0.00     0.065 H 
BRANCH   5  18
ATOM     18  C   UNL     1     -49.180  33.090  25.932  1.00  0.00     0.043 C 
ATOM     19  H   UNL     1     -50.049  33.057  26.599  1.00  0.00     0.054 H 
ATOM     20  H   UNL     1     -49.543  33.433  24.957  1.00  0.00     0.054 H 
BRANCH  18  21
ATOM     21  N   UNL     1     -48.662  31.754  25.794  1.00  0.00    -0.347 N 
ATOM     22  O   UNL     1     -49.018  31.590  23.533  1.00  0.00    -0.268 OA
ATOM     23  C   UNL     1     -48.650  31.096  24.593  1.00  0.00     0.270 C 
ATOM     24  H   UNL     1     -48.380  31.228  26.616  1.00  0.00     0.164 HD
BRANCH  23  25
ATOM     25  C   UNL     1     -48.134  29.682  24.714  1.00  0.00     0.136 A 
ATOM     26  C   UNL     1     -47.129  29.344  23.904  1.00  0.00     0.035 A 
ATOM     27  N   UNL     1     -48.719  28.841  25.633  1.00  0.00    -0.225 NA
ATOM     28  C   UNL     1     -46.597  27.978  23.989  1.00  0.00     0.258 A 
ATOM     29  H   UNL     1     -46.677  30.015  23.185  1.00  0.00     0.071 H 
ATOM     30  C   UNL     1     -48.246  27.635  25.705  1.00  0.00     0.140 A 
ATOM     31  O   UNL     1     -45.670  27.658  23.247  1.00  0.00    -0.269 OA
ATOM     32  N   UNL     1     -47.203  27.151  24.923  1.00  0.00    -0.268 N 
ATOM     33  C   UNL     1     -48.849  26.689  26.687  1.00  0.00    -0.019 A 
ATOM     34  C   UNL     1     -46.754  25.841  25.061  1.00  0.00     0.014 A 
ATOM     35  C   UNL     1     -48.381  25.438  26.784  1.00  0.00    -0.057 A 
ATOM     36  H   UNL     1     -49.662  27.058  27.301  1.00  0.00     0.066 H 
ATOM     37  C   UNL     1     -47.300  24.997  25.945  1.00  0.00    -0.045 A 
ATOM     38  H   UNL     1     -45.935  25.530  24.417  1.00  0.00     0.082 H 
ATOM     39  H   UNL     1     -48.807  24.736  27.493  1.00  0.00     0.062 H 
ATOM     40  H   UNL     1     -46.941  23.978  26.045  1.00  0.00     0.064 H 
ENDBRANCH  23  25
ENDBRANCH  18  21
ENDBRANCH   5  18
ENDBRANCH   1   4
BRANCH   1  41
ATOM     41  N   UNL     1     -44.608  39.520  28.794  1.00  0.00    -0.308 NA
ATOM     42  H   UNL     1     -44.157  38.613  28.669  1.00  0.00     0.123 HD
BRANCH  41  43
ATOM     43  C   UNL     1     -44.034  40.441  27.796  1.00  0.00     0.024 C 
ATOM     44  H   UNL     1     -43.695  39.815  26.961  1.00  0.00     0.046 H 
ATOM     45  H   UNL     1     -44.816  41.091  27.384  1.00  0.00     0.046 H 
BRANCH  43  46
ATOM     46  C   UNL     1     -42.852  41.291  28.311  1.00  0.00     0.077 C 
ATOM     47  C   UNL     1     -43.054  42.822  28.088  1.00  0.00    -0.023 C 
ATOM     48  C   UNL     1     -41.620  41.407  27.360  1.00  0.00    -0.023 C 
ATOM     49  C   UNL     1     -42.232  42.700  26.793  1.00  0.00    -0.048 C 
ATOM     50  H   UNL     1     -44.083  43.165  27.954  1.00  0.00     0.030 H 
ATOM     51  H   UNL     1     -42.577  43.449  28.851  1.00  0.00     0.030 H 
ATOM     52  H   UNL     1     -40.670  41.564  27.881  1.00  0.00     0.030 H 
ATOM     53  H   UNL     1     -41.483  40.605  26.629  1.00  0.00     0.030 H 
ATOM     54  H   UNL     1     -41.525  43.513  26.603  1.00  0.00     0.027 H 
ATOM     55  H   UNL     1     -42.840  42.545  25.896  1.00  0.00     0.027 H 
BRANCH  46  56
ATOM     56  O   UNL     1     -42.547  40.937  29.684  1.00  0.00    -0.389 OA
ATOM     57  H   UNL     1     -43.408  40.882  30.134  1.00  0.00     0.211 HD
ENDBRANCH  46  56
ENDBRANCH  43  46
ENDBRANCH  41  43
ENDBRANCH   1  41
TORSDOF 8
ENDMDL
MODEL 4
REMARK VINA RESULT:     -10.0      1.809      2.298
REMARK SMILES O=C(NCc1ccc2cc(CNCC3(O)CCC3)[nH]c2c1)c1cc(=O)n2ccccc2n1
REMARK SMILES IDX 11 1 10 4 5 5 6 6 21 7 7 8 20 10 8 12 19 14 9 15 4 18 3 21
REMARK SMILES IDX 1 22 2 23 22 25 23 26 32 27 24 28 31 30 25 31 26 32 30 33
REMARK SMILES IDX 27 34 29 35 28 37 12 41 13 43 14 46 16 47 18 48 17 49 15 56
REMARK H PARENT 11 2 11 3 6 9 21 11 7 13 19 16 9 17 4 19 4 20 3 24 23 29 30 36
REMARK H PARENT 27 38 29 39 28 40 12 42 13 44 13 45 16 50 16 51 18 52 18 53
REMARK H PARENT 17 54 17 55 15 57
REMARK Flexibility Score: inf
ROOT
ATOM      1  C   UNL     1     -48.768  30.254  24.725  1.00  0.00     0.036 C 
ATOM      2  H   UNL     1     -49.799  30.124  25.075  1.00  0.00     0.049 H 
ATOM      3  H   UNL     1     -48.766  30.257  23.630  1.00  0.00     0.049 H 
ENDROOT
BRANCH   1   4
ATOM      4  C   UNL     1     -48.252  31.576  25.184  1.00  0.00     0.030 A 
ATOM      5  C   UNL     1     -47.835  35.789  27.037  1.00  0.00    -0.027 A 
ATOM      6  C   UNL     1     -46.521  35.630  26.576  1.00  0.00    -0.057 A 
ATOM      7  C   UNL     1     -48.775  34.761  26.848  1.00  0.00    -0.033 A 
ATOM      8  C   UNL     1     -46.124  34.465  25.907  1.00  0.00    -0.052 A 
ATOM      9  H   UNL     1     -45.787  36.419  26.736  1.00  0.00     0.063 H 
ATOM     10  C   UNL     1     -48.358  33.604  26.178  1.00  0.00     0.046 A 
ATOM     11  H   UNL     1     -49.792  34.860  27.214  1.00  0.00     0.065 H 
ATOM     12  C   UNL     1     -47.060  33.435  25.702  1.00  0.00    -0.000 A 
ATOM     13  H   UNL     1     -45.104  34.361  25.551  1.00  0.00     0.063 H 
ATOM     14  N   UNL     1     -49.057  32.465  25.856  1.00  0.00    -0.357 N 
ATOM     15  C   UNL     1     -47.004  32.156  25.080  1.00  0.00    -0.032 A 
ATOM     16  H   UNL     1     -50.036  32.303  26.048  1.00  0.00     0.166 HD
ATOM     17  H   UNL     1     -46.139  31.711  24.606  1.00  0.00     0.065 H 
BRANCH   5  18
ATOM     18  C   UNL     1     -48.229  37.037  27.782  1.00  0.00     0.043 C 
ATOM     19  H   UNL     1     -49.290  37.268  27.627  1.00  0.00     0.054 H 
ATOM     20  H   UNL     1     -48.090  36.907  28.862  1.00  0.00     0.054 H 
BRANCH  18  21
ATOM     21  N   UNL     1     -47.450  38.163  27.343  1.00  0.00    -0.347 N 
ATOM     22  O   UNL     1     -46.037  38.200  29.151  1.00  0.00    -0.268 OA
ATOM     23  C   UNL     1     -46.421  38.675  28.088  1.00  0.00     0.270 C 
ATOM     24  H   UNL     1     -47.713  38.670  26.502  1.00  0.00     0.164 HD
BRANCH  23  25
ATOM     25  C   UNL     1     -45.806  39.902  27.458  1.00  0.00     0.136 A 
ATOM     26  C   UNL     1     -46.644  40.737  26.841  1.00  0.00     0.035 A 
ATOM     27  N   UNL     1     -44.445  40.083  27.554  1.00  0.00    -0.225 NA
ATOM     28  C   UNL     1     -46.087  41.942  26.214  1.00  0.00     0.258 A 
ATOM     29  H   UNL     1     -47.713  40.583  26.772  1.00  0.00     0.071 H 
ATOM     30  C   UNL     1     -43.957  41.150  26.999  1.00  0.00     0.140 A 
ATOM     31  O   UNL     1     -46.852  42.719  25.644  1.00  0.00    -0.269 OA
ATOM     32  N   UNL     1     -44.714  42.102  26.325  1.00  0.00    -0.268 N 
ATOM     33  C   UNL     1     -42.488  41.388  27.078  1.00  0.00    -0.019 A 
ATOM     34  C   UNL     1     -44.114  43.221  25.756  1.00  0.00     0.014 A 
ATOM     35  C   UNL     1     -41.956  42.480  26.515  1.00  0.00    -0.057 A 
ATOM     36  H   UNL     1     -41.890  40.651  27.602  1.00  0.00     0.066 H 
ATOM     37  C   UNL     1     -42.793  43.428  25.831  1.00  0.00    -0.045 A 
ATOM     38  H   UNL     1     -44.766  43.925  25.244  1.00  0.00     0.082 H 
ATOM     39  H   UNL     1     -40.889  42.670  26.563  1.00  0.00     0.062 H 
ATOM     40  H   UNL     1     -42.336  44.305  25.383  1.00  0.00     0.064 H 
ENDBRANCH  23  25
ENDBRANCH  18  21
ENDBRANCH   5  18
ENDBRANCH   1   4
BRANCH   1  41
ATOM     41  N   UNL     1     -47.898  29.202  25.250  1.00  0.00    -0.308 NA
ATOM     42  H   UNL     1     -47.246  29.652  25.894  1.00  0.00     0.123 HD
BRANCH  41  43
ATOM     43  C   UNL     1     -48.646  28.188  26.015  1.00  0.00     0.024 C 
ATOM     44  H   UNL     1     -47.928  27.740  26.714  1.00  0.00     0.046 H 
ATOM     45  H   UNL     1     -49.411  28.668  26.638  1.00  0.00     0.046 H 
BRANCH  43  46
ATOM     46  C   UNL     1     -49.283  27.075  25.154  1.00  0.00     0.077 C 
ATOM     47  C   UNL     1     -50.801  27.305  24.877  1.00  0.00    -0.023 C 
ATOM     48  C   UNL     1     -49.710  25.778  25.909  1.00  0.00    -0.023 C 
ATOM     49  C   UNL     1     -51.116  26.383  26.067  1.00  0.00    -0.048 C 
ATOM     50  H   UNL     1     -51.165  28.332  24.976  1.00  0.00     0.030 H 
ATOM     51  H   UNL     1     -51.143  26.909  23.914  1.00  0.00     0.030 H 
ATOM     52  H   UNL     1     -49.690  24.875  25.287  1.00  0.00     0.030 H 
ATOM     53  H   UNL     1     -49.195  25.560  26.847  1.00  0.00     0.030 H 
ATOM     54  H   UNL     1     -51.948  25.689  25.921  1.00  0.00     0.027 H 
ATOM     55  H   UNL     1     -51.263  26.916  27.013  1.00  0.00     0.027 H 
BRANCH  46  56
ATOM     56  O   UNL     1     -48.497  26.866  23.953  1.00  0.00    -0.389 OA
ATOM     57  H   UNL     1     -47.662  26.469  24.255  1.00  0.00     0.211 HD
ENDBRANCH  46  56
ENDBRANCH  43  46
ENDBRANCH  41  43
ENDBRANCH   1  41
TORSDOF 8
ENDMDL
MODEL 5
REMARK VINA RESULT:      -9.8      2.355      3.475
REMARK SMILES O=C(NCc1ccc2cc(CNCC3(O)CCC3)[nH]c2c1)c1cc(=O)n2ccccc2n1
REMARK SMILES IDX 11 1 10 4 5 5 6 6 21 7 7 8 20 10 8 12 19 14 9 15 4 18 3 21
REMARK SMILES IDX 1 22 2 23 22 25 23 26 32 27 24 28 31 30 25 31 26 32 30 33
REMARK SMILES IDX 27 34 29 35 28 37 12 41 13 43 14 46 16 47 18 48 17 49 15 56
REMARK H PARENT 11 2 11 3 6 9 21 11 7 13 19 16 9 17 4 19 4 20 3 24 23 29 30 36
REMARK H PARENT 27 38 29 39 28 40 12 42 13 44 13 45 16 50 16 51 18 52 18 53
REMARK H PARENT 17 54 17 55 15 57
REMARK Flexibility Score: inf
ROOT
ATOM      1  C   UNL     1     -46.226  31.445  23.971  1.00  0.00     0.036 C 
ATOM      2  H   UNL     1     -46.226  31.826  22.943  1.00  0.00     0.049 H 
ATOM      3  H   UNL     1     -45.203  31.166  24.244  1.00  0.00     0.049 H 
ENDROOT
BRANCH   1   4
ATOM      4  C   UNL     1     -46.666  32.526  24.900  1.00  0.00     0.030 A 
ATOM      5  C   UNL     1     -46.782  36.025  27.918  1.00  0.00    -0.027 A 
ATOM      6  C   UNL     1     -48.162  35.860  27.732  1.00  0.00    -0.057 A 
ATOM      7  C   UNL     1     -45.877  35.206  27.221  1.00  0.00    -0.033 A 
ATOM      8  C   UNL     1     -48.664  34.875  26.872  1.00  0.00    -0.052 A 
ATOM      9  H   UNL     1     -48.864  36.505  28.258  1.00  0.00     0.063 H 
ATOM     10  C   UNL     1     -46.398  34.227  26.365  1.00  0.00     0.046 A 
ATOM     11  H   UNL     1     -44.805  35.331  27.340  1.00  0.00     0.065 H 
ATOM     12  C   UNL     1     -47.767  34.043  26.178  1.00  0.00    -0.000 A 
ATOM     13  H   UNL     1     -49.735  34.757  26.744  1.00  0.00     0.063 H 
ATOM     14  N   UNL     1     -45.755  33.301  25.579  1.00  0.00    -0.357 N 
ATOM     15  C   UNL     1     -47.923  32.971  25.255  1.00  0.00    -0.032 A 
ATOM     16  H   UNL     1     -44.754  33.173  25.524  1.00  0.00     0.166 HD
ATOM     17  H   UNL     1     -48.860  32.570  24.891  1.00  0.00     0.065 H 
BRANCH   5  18
ATOM     18  C   UNL     1     -46.265  37.112  28.823  1.00  0.00     0.043 C 
ATOM     19  H   UNL     1     -47.030  37.419  29.545  1.00  0.00     0.054 H 
ATOM     20  H   UNL     1     -45.405  36.759  29.405  1.00  0.00     0.054 H 
BRANCH  18  21
ATOM     21  N   UNL     1     -45.870  38.266  28.060  1.00  0.00    -0.347 N 
ATOM     22  O   UNL     1     -44.197  38.933  29.482  1.00  0.00    -0.268 OA
ATOM     23  C   UNL     1     -44.871  39.108  28.474  1.00  0.00     0.270 C 
ATOM     24  H   UNL     1     -46.396  38.538  27.235  1.00  0.00     0.164 HD
BRANCH  23  25
ATOM     25  C   UNL     1     -44.693  40.290  27.551  1.00  0.00     0.136 A 
ATOM     26  C   UNL     1     -45.801  40.781  26.992  1.00  0.00     0.035 A 
ATOM     27  N   UNL     1     -43.424  40.780  27.342  1.00  0.00    -0.225 NA
ATOM     28  C   UNL     1     -45.672  41.929  26.087  1.00  0.00     0.258 A 
ATOM     29  H   UNL     1     -46.794  40.386  27.164  1.00  0.00     0.071 H 
ATOM     30  C   UNL     1     -43.314  41.795  26.541  1.00  0.00     0.140 A 
ATOM     31  O   UNL     1     -46.688  42.390  25.568  1.00  0.00    -0.269 OA
ATOM     32  N   UNL     1     -44.383  42.405  25.894  1.00  0.00    -0.268 N 
ATOM     33  C   UNL     1     -41.959  42.360  26.286  1.00  0.00    -0.019 A 
ATOM     34  C   UNL     1     -44.181  43.491  25.048  1.00  0.00     0.014 A 
ATOM     35  C   UNL     1     -41.815  43.407  25.464  1.00  0.00    -0.057 A 
ATOM     36  H   UNL     1     -41.120  41.891  26.786  1.00  0.00     0.066 H 
ATOM     37  C   UNL     1     -42.961  43.993  24.823  1.00  0.00    -0.045 A 
ATOM     38  H   UNL     1     -45.062  43.919  24.575  1.00  0.00     0.082 H 
ATOM     39  H   UNL     1     -40.836  43.832  25.266  1.00  0.00     0.062 H 
ATOM     40  H   UNL     1     -42.815  44.842  24.162  1.00  0.00     0.064 H 
ENDBRANCH  23  25
ENDBRANCH  18  21
ENDBRANCH   5  18
ENDBRANCH   1   4
BRANCH   1  41
ATOM     41  N   UNL     1     -47.136  30.308  24.110  1.00  0.00    -0.308 NA
ATOM     42  H   UNL     1     -47.838  30.574  24.802  1.00  0.00     0.123 HD
BRANCH  41  43
ATOM     43  C   UNL     1     -47.846  30.004  22.854  1.00  0.00     0.024 C 
ATOM     44  H   UNL     1     -47.335  30.574  22.068  1.00  0.00     0.046 H 
ATOM     45  H   UNL     1     -47.716  28.947  22.589  1.00  0.00     0.046 H 
BRANCH  43  46
ATOM     46  C   UNL     1     -49.346  30.372  22.858  1.00  0.00     0.077 C 
ATOM     47  C   UNL     1     -50.019  30.189  24.255  1.00  0.00    -0.023 C 
ATOM     48  C   UNL     1     -50.327  29.274  22.343  1.00  0.00    -0.023 C 
ATOM     49  C   UNL     1     -50.495  28.800  23.797  1.00  0.00    -0.048 C 
ATOM     50  H   UNL     1     -49.352  30.189  25.122  1.00  0.00     0.030 H 
ATOM     51  H   UNL     1     -50.838  30.891  24.449  1.00  0.00     0.030 H 
ATOM     52  H   UNL     1     -51.248  29.673  21.903  1.00  0.00     0.030 H 
ATOM     53  H   UNL     1     -49.917  28.526  21.660  1.00  0.00     0.030 H 
ATOM     54  H   UNL     1     -51.513  28.528  24.090  1.00  0.00     0.027 H 
ATOM     55  H   UNL     1     -49.818  27.985  24.076  1.00  0.00     0.027 H 
BRANCH  46  56
ATOM     56  O   UNL     1     -49.535  31.693  22.290  1.00  0.00    -0.389 OA
ATOM     57  H   UNL     1     -50.498  31.802  22.204  1.00  0.00     0.211 HD
ENDBRANCH  46  56
ENDBRANCH  43  46
ENDBRANCH  41  43
ENDBRANCH   1  41
TORSDOF 8
ENDMDL
MODEL 6
REMARK VINA RESULT:      -9.7      2.107      2.947
REMARK SMILES O=C(NCc1ccc2cc(CNCC3(O)CCC3)[nH]c2c1)c1cc(=O)n2ccccc2n1
REMARK SMILES IDX 11 1 10 4 5 5 6 6 21 7 7 8 20 10 8 12 19 14 9 15 4 18 3 21
REMARK SMILES IDX 1 22 2 23 22 25 23 26 32 27 24 28 31 30 25 31 26 32 30 33
REMARK SMILES IDX 27 34 29 35 28 37 12 41 13 43 14 46 16 47 18 48 17 49 15 56
REMARK H PARENT 11 2 11 3 6 9 21 11 7 13 19 16 9 17 4 19 4 20 3 24 23 29 30 36
REMARK H PARENT 27 38 29 39 28 40 12 42 13 44 13 45 16 50 16 51 18 52 18 53
REMARK H PARENT 17 54 17 55 15 57
REMARK Flexibility Score: inf
ROOT
ATOM      1  C   UNL     1     -48.803  29.747  25.012  1.00  0.00     0.036 C 
ATOM      2  H   UNL     1     -48.212  29.030  25.595  1.00  0.00     0.049 H 
ATOM      3  H   UNL     1     -49.848  29.684  25.331  1.00  0.00     0.049 H 
ENDROOT
BRANCH   1   4
ATOM      4  C   UNL     1     -48.322  31.130  25.294  1.00  0.00     0.030 A 
ATOM      5  C   UNL     1     -47.933  35.488  26.785  1.00  0.00    -0.027 A 
ATOM      6  C   UNL     1     -46.704  35.382  26.118  1.00  0.00    -0.057 A 
ATOM      7  C   UNL     1     -48.809  34.389  26.822  1.00  0.00    -0.033 A 
ATOM      8  C   UNL     1     -46.334  34.199  25.465  1.00  0.00    -0.052 A 
ATOM      9  H   UNL     1     -46.018  36.227  26.102  1.00  0.00     0.063 H 
ATOM     10  C   UNL     1     -48.420  33.215  26.164  1.00  0.00     0.046 A 
ATOM     11  H   UNL     1     -49.756  34.448  27.348  1.00  0.00     0.065 H 
ATOM     12  C   UNL     1     -47.208  33.097  25.486  1.00  0.00    -0.000 A 
ATOM     13  H   UNL     1     -45.382  34.136  24.948  1.00  0.00     0.063 H 
ATOM     14  N   UNL     1     -49.072  32.011  26.036  1.00  0.00    -0.357 N 
ATOM     15  C   UNL     1     -47.157  31.782  24.944  1.00  0.00    -0.032 A 
ATOM     16  H   UNL     1     -49.991  31.801  26.401  1.00  0.00     0.166 HD
ATOM     17  H   UNL     1     -46.350  31.361  24.359  1.00  0.00     0.065 H 
BRANCH   5  18
ATOM     18  C   UNL     1     -48.295  36.758  27.507  1.00  0.00     0.043 C 
ATOM     19  H   UNL     1     -49.121  37.274  27.004  1.00  0.00     0.054 H 
ATOM     20  H   UNL     1     -48.632  36.544  28.528  1.00  0.00     0.054 H 
BRANCH  18  21
ATOM     21  N   UNL     1     -47.169  37.652  27.565  1.00  0.00    -0.347 N 
ATOM     22  O   UNL     1     -46.447  36.998  29.642  1.00  0.00    -0.268 OA
ATOM     23  C   UNL     1     -46.343  37.718  28.656  1.00  0.00     0.270 C 
ATOM     24  H   UNL     1     -47.019  38.333  26.825  1.00  0.00     0.164 HD
BRANCH  23  25
ATOM     25  C   UNL     1     -45.283  38.784  28.514  1.00  0.00     0.136 A 
ATOM     26  C   UNL     1     -44.392  38.872  29.504  1.00  0.00     0.035 A 
ATOM     27  N   UNL     1     -45.296  39.586  27.397  1.00  0.00    -0.225 NA
ATOM     28  C   UNL     1     -43.345  39.896  29.407  1.00  0.00     0.258 A 
ATOM     29  H   UNL     1     -44.392  38.235  30.379  1.00  0.00     0.071 H 
ATOM     30  C   UNL     1     -44.369  40.489  27.314  1.00  0.00     0.140 A 
ATOM     31  O   UNL     1     -42.519  39.985  30.314  1.00  0.00    -0.269 OA
ATOM     32  N   UNL     1     -43.380  40.691  28.271  1.00  0.00    -0.268 N 
ATOM     33  C   UNL     1     -44.345  41.381  26.120  1.00  0.00    -0.019 A 
ATOM     34  C   UNL     1     -42.419  41.684  28.108  1.00  0.00     0.014 A 
ATOM     35  C   UNL     1     -43.399  42.322  26.008  1.00  0.00    -0.057 A 
ATOM     36  H   UNL     1     -45.111  41.231  25.369  1.00  0.00     0.066 H 
ATOM     37  C   UNL     1     -42.403  42.481  27.033  1.00  0.00    -0.045 A 
ATOM     38  H   UNL     1     -41.676  41.786  28.896  1.00  0.00     0.082 H 
ATOM     39  H   UNL     1     -43.365  42.981  25.146  1.00  0.00     0.062 H 
ATOM     40  H   UNL     1     -41.648  43.253  26.916  1.00  0.00     0.064 H 
ENDBRANCH  23  25
ENDBRANCH  18  21
ENDBRANCH   5  18
ENDBRANCH   1   4
BRANCH   1  41
ATOM     41  N   UNL     1     -48.675  29.490  23.577  1.00  0.00    -0.308 NA
ATOM     42  H   UNL     1     -48.938  28.515  23.427  1.00  0.00     0.123 HD
BRANCH  41  43
ATOM     43  C   UNL     1     -49.589  30.324  22.776  1.00  0.00     0.024 C 
ATOM     44  H   UNL     1     -50.592  30.163  23.190  1.00  0.00     0.046 H 
ATOM     45  H   UNL     1     -49.369  31.388  22.931  1.00  0.00     0.046 H 
BRANCH  43  46
ATOM     46  C   UNL     1     -49.601  29.997  21.267  1.00  0.00     0.077 C 
ATOM     47  C   UNL     1     -49.752  31.262  20.365  1.00  0.00    -0.023 C 
ATOM     48  C   UNL     1     -50.964  29.523  20.674  1.00  0.00    -0.023 C 
ATOM     49  C   UNL     1     -51.264  30.986  20.303  1.00  0.00    -0.048 C 
ATOM     50  H   UNL     1     -49.473  32.219  20.816  1.00  0.00     0.030 H 
ATOM     51  H   UNL     1     -49.252  31.178  19.394  1.00  0.00     0.030 H 
ATOM     52  H   UNL     1     -50.865  28.863  19.805  1.00  0.00     0.030 H 
ATOM     53  H   UNL     1     -51.675  29.070  21.370  1.00  0.00     0.030 H 
ATOM     54  H   UNL     1     -51.734  31.139  19.327  1.00  0.00     0.027 H 
ATOM     55  H   UNL     1     -51.844  31.523  21.061  1.00  0.00     0.027 H 
BRANCH  46  56
ATOM     56  O   UNL     1     -48.455  29.175  20.928  1.00  0.00    -0.389 OA
ATOM     57  H   UNL     1     -48.406  29.188  19.957  1.00  0.00     0.211 HD
ENDBRANCH  46  56
ENDBRANCH  43  46
ENDBRANCH  41  43
ENDBRANCH   1  41
TORSDOF 8
ENDMDL
MODEL 7
REMARK VINA RESULT:      -9.7      2.138     11.412
REMARK SMILES O=C(NCc1ccc2cc(CNCC3(O)CCC3)[nH]c2c1)c1cc(=O)n2ccccc2n1
REMARK SMILES IDX 11 1 10 4 5 5 6 6 21 7 7 8 20 10 8 12 19 14 9 15 4 18 3 21
REMARK SMILES IDX 1 22 2 23 22 25 23 26 32 27 24 28 31 30 25 31 26 32 30 33
REMARK SMILES IDX 27 34 29 35 28 37 12 41 13 43 14 46 16 47 18 48 17 49 15 56
REMARK H PARENT 11 2 11 3 6 9 21 11 7 13 19 16 9 17 4 19 4 20 3 24 23 29 30 36
REMARK H PARENT 27 38 29 39 28 40 12 42 13 44 13 45 16 50 16 51 18 52 18 53
REMARK H PARENT 17 54 17 55 15 57
REMARK Flexibility Score: inf
ROOT
ATOM      1  C   UNL     1     -45.491  37.285  30.012  1.00  0.00     0.036 C 
ATOM      2  H   UNL     1     -46.286  37.756  30.602  1.00  0.00     0.049 H 
ATOM      3  H   UNL     1     -44.890  36.652  30.674  1.00  0.00     0.049 H 
ENDROOT
BRANCH   1   4
ATOM      4  C   UNL     1     -46.099  36.407  28.971  1.00  0.00     0.030 A 
ATOM      5  C   UNL     1     -46.771  33.467  25.469  1.00  0.00    -0.027 A 
ATOM      6  C   UNL     1     -48.111  33.704  25.806  1.00  0.00    -0.057 A 
ATOM      7  C   UNL     1     -45.743  34.090  26.198  1.00  0.00    -0.033 A 
ATOM      8  C   UNL     1     -48.452  34.571  26.852  1.00  0.00    -0.052 A 
ATOM      9  H   UNL     1     -48.908  33.210  25.253  1.00  0.00     0.063 H 
ATOM     10  C   UNL     1     -46.104  34.952  27.241  1.00  0.00     0.046 A 
ATOM     11  H   UNL     1     -44.700  33.904  25.961  1.00  0.00     0.065 H 
ATOM     12  C   UNL     1     -47.431  35.208  27.581  1.00  0.00    -0.000 A 
ATOM     13  H   UNL     1     -49.495  34.748  27.097  1.00  0.00     0.063 H 
ATOM     14  N   UNL     1     -45.319  35.685  28.099  1.00  0.00    -0.357 N 
ATOM     15  C   UNL     1     -47.416  36.123  28.670  1.00  0.00    -0.032 A 
ATOM     16  H   UNL     1     -44.309  35.726  28.079  1.00  0.00     0.166 HD
ATOM     17  H   UNL     1     -48.280  36.530  29.179  1.00  0.00     0.065 H 
BRANCH   5  18
ATOM     18  C   UNL     1     -46.428  32.506  24.362  1.00  0.00     0.043 C 
ATOM     19  H   UNL     1     -46.775  32.884  23.393  1.00  0.00     0.054 H 
ATOM     20  H   UNL     1     -45.342  32.377  24.279  1.00  0.00     0.054 H 
BRANCH  18  21
ATOM     21  N   UNL     1     -47.034  31.222  24.593  1.00  0.00    -0.347 N 
ATOM     22  O   UNL     1     -48.633  31.413  22.958  1.00  0.00    -0.268 OA
ATOM     23  C   UNL     1     -48.120  30.788  23.879  1.00  0.00     0.270 C 
ATOM     24  H   UNL     1     -46.725  30.643  25.368  1.00  0.00     0.164 HD
BRANCH  23  25
ATOM     25  C   UNL     1     -48.626  29.447  24.355  1.00  0.00     0.136 A 
ATOM     26  C   UNL     1     -49.939  29.235  24.249  1.00  0.00     0.035 A 
ATOM     27  N   UNL     1     -47.723  28.541  24.861  1.00  0.00    -0.225 NA
ATOM     28  C   UNL     1     -50.473  27.944  24.701  1.00  0.00     0.258 A 
ATOM     29  H   UNL     1     -50.640  29.956  23.849  1.00  0.00     0.071 H 
ATOM     30  C   UNL     1     -48.198  27.402  25.259  1.00  0.00     0.140 A 
ATOM     31  O   UNL     1     -51.682  27.739  24.606  1.00  0.00    -0.269 OA
ATOM     32  N   UNL     1     -49.542  27.049  25.206  1.00  0.00    -0.268 N 
ATOM     33  C   UNL     1     -47.255  26.389  25.814  1.00  0.00    -0.019 A 
ATOM     34  C   UNL     1     -49.973  25.804  25.654  1.00  0.00     0.014 A 
ATOM     35  C   UNL     1     -47.718  25.204  26.233  1.00  0.00    -0.057 A 
ATOM     36  H   UNL     1     -46.206  26.655  25.859  1.00  0.00     0.066 H 
ATOM     37  C   UNL     1     -49.121  24.899  26.152  1.00  0.00    -0.045 A 
ATOM     38  H   UNL     1     -51.038  25.595  25.584  1.00  0.00     0.082 H 
ATOM     39  H   UNL     1     -47.047  24.455  26.639  1.00  0.00     0.062 H 
ATOM     40  H   UNL     1     -49.468  23.931  26.499  1.00  0.00     0.064 H 
ENDBRANCH  23  25
ENDBRANCH  18  21
ENDBRANCH   5  18
ENDBRANCH   1   4
BRANCH   1  41
ATOM     41  N   UNL     1     -44.661  38.291  29.351  1.00  0.00    -0.308 NA
ATOM     42  H   UNL     1     -44.234  37.838  28.542  1.00  0.00     0.123 HD
BRANCH  41  43
ATOM     43  C   UNL     1     -45.454  39.430  28.853  1.00  0.00     0.024 C 
ATOM     44  H   UNL     1     -46.495  39.222  29.128  1.00  0.00     0.046 H 
ATOM     45  H   UNL     1     -45.181  40.348  29.388  1.00  0.00     0.046 H 
BRANCH  43  46
ATOM     46  C   UNL     1     -45.365  39.657  27.328  1.00  0.00     0.077 C 
ATOM     47  C   UNL     1     -46.202  40.880  26.839  1.00  0.00    -0.023 C 
ATOM     48  C   UNL     1     -46.302  38.777  26.443  1.00  0.00    -0.023 C 
ATOM     49  C   UNL     1     -47.344  39.909  26.495  1.00  0.00    -0.048 C 
ATOM     50  H   UNL     1     -46.446  41.637  27.590  1.00  0.00     0.030 H 
ATOM     51  H   UNL     1     -45.779  41.386  25.963  1.00  0.00     0.030 H 
ATOM     52  H   UNL     1     -45.913  38.587  25.437  1.00  0.00     0.030 H 
ATOM     53  H   UNL     1     -46.634  37.827  26.869  1.00  0.00     0.030 H 
ATOM     54  H   UNL     1     -47.870  40.109  25.558  1.00  0.00     0.027 H 
ATOM     55  H   UNL     1     -48.082  39.792  27.296  1.00  0.00     0.027 H 
BRANCH  46  56
ATOM     56  O   UNL     1     -43.976  39.699  26.912  1.00  0.00    -0.389 OA
ATOM     57  H   UNL     1     -43.465  39.408  27.688  1.00  0.00     0.211 HD
ENDBRANCH  46  56
ENDBRANCH  43  46
ENDBRANCH  41  43
ENDBRANCH   1  41
TORSDOF 8
ENDMDL
