MODEL 1
REMARK VINA RESULT:      -8.9      0.000      0.000
REMARK SMILES CNc1cc(N2CCC(O)(CNc3ccc(CN4CCC(C)(C)CC4)cc3)CC2)ncn1
REMARK SMILES IDX 11 1 9 4 6 5 7 6 29 7 8 8 28 11 5 18 3 19 4 20 32 21 31 23
REMARK SMILES IDX 30 24 2 26 1 28 10 32 12 34 13 36 14 37 27 38 15 39 26 41
REMARK SMILES IDX 16 43 17 46 18 49 19 50 25 51 20 52 24 55 21 58 22 63 23 67
REMARK H PARENT 11 2 11 3 7 9 7 10 29 12 29 13 8 14 8 15 28 16 28 17 4 22
REMARK H PARENT 31 25 2 27 1 29 1 30 1 31 10 33 12 35 14 40 27 42 15 44 26 45
REMARK H PARENT 17 47 17 48 19 53 19 54 25 56 25 57 20 59 20 60 24 61 24 62
REMARK H PARENT 22 64 22 65 22 66 23 68 23 69 23 70
REMARK Flexibility Score: inf
ROOT
ATOM      1  C   UNL     1     -45.503  35.995  27.724  1.00  0.00     0.044 C 
ATOM      2  H   UNL     1     -44.582  36.507  27.429  1.00  0.00     0.052 H 
ATOM      3  H   UNL     1     -45.265  34.950  27.959  1.00  0.00     0.052 H 
ENDROOT
BRANCH   1   4
ATOM      4  C   UNL     1     -46.135  36.660  28.985  1.00  0.00     0.085 C 
ATOM      5  N   UNL     1     -45.536  39.126  27.998  1.00  0.00    -0.356 N 
ATOM      6  C   UNL     1     -44.548  38.654  28.978  1.00  0.00     0.022 C 
ATOM      7  C   UNL     1     -46.932  39.035  28.425  1.00  0.00     0.022 C 
ATOM      8  C   UNL     1     -45.088  37.462  29.767  1.00  0.00    -0.005 C 
ATOM      9  H   UNL     1     -43.637  38.346  28.449  1.00  0.00     0.049 H 
ATOM     10  H   UNL     1     -44.273  39.441  29.693  1.00  0.00     0.049 H 
ATOM     11  C   UNL     1     -47.327  37.567  28.613  1.00  0.00    -0.005 C 
ATOM     12  H   UNL     1     -47.056  39.577  29.372  1.00  0.00     0.049 H 
ATOM     13  H   UNL     1     -47.637  39.488  27.719  1.00  0.00     0.049 H 
ATOM     14  H   UNL     1     -45.545  37.826  30.699  1.00  0.00     0.031 H 
ATOM     15  H   UNL     1     -44.262  36.819  30.098  1.00  0.00     0.031 H 
ATOM     16  H   UNL     1     -47.802  37.204  27.692  1.00  0.00     0.031 H 
ATOM     17  H   UNL     1     -48.114  37.512  29.375  1.00  0.00     0.031 H 
BRANCH   5  18
ATOM     18  C   UNL     1     -45.163  40.295  27.316  1.00  0.00     0.134 A 
ATOM     19  C   UNL     1     -43.526  41.877  26.633  1.00  0.00     0.131 A 
ATOM     20  C   UNL     1     -43.841  40.710  27.306  1.00  0.00     0.023 A 
ATOM     21  N   UNL     1     -44.456  42.620  26.027  1.00  0.00    -0.219 NA
ATOM     22  H   UNL     1     -43.079  40.171  27.851  1.00  0.00     0.070 H 
ATOM     23  C   UNL     1     -45.710  42.164  26.111  1.00  0.00     0.120 A 
ATOM     24  N   UNL     1     -46.110  41.040  26.723  1.00  0.00    -0.219 NA
ATOM     25  H   UNL     1     -46.481  42.761  25.637  1.00  0.00     0.106 H 
BRANCH  19  26
ATOM     26  N   UNL     1     -42.225  42.382  26.579  1.00  0.00    -0.373 N 
ATOM     27  H   UNL     1     -42.075  42.800  27.496  1.00  0.00     0.161 HD
BRANCH  26  28
ATOM     28  C   UNL     1     -41.983  43.329  25.505  1.00  0.00     0.005 C 
ATOM     29  H   UNL     1     -41.757  44.309  25.937  1.00  0.00     0.045 H 
ATOM     30  H   UNL     1     -41.124  43.037  24.893  1.00  0.00     0.045 H 
ATOM     31  H   UNL     1     -42.865  43.442  24.863  1.00  0.00     0.045 H 
ENDBRANCH  26  28
ENDBRANCH  19  26
ENDBRANCH   5  18
BRANCH   4  32
ATOM     32  O   UNL     1     -46.612  35.597  29.842  1.00  0.00    -0.388 OA
ATOM     33  H   UNL     1     -46.646  34.780  29.316  1.00  0.00     0.211 HD
ENDBRANCH   4  32
ENDBRANCH   1   4
BRANCH   1  34
ATOM     34  N   UNL     1     -46.476  36.014  26.622  1.00  0.00    -0.382 N 
ATOM     35  H   UNL     1     -47.175  36.737  26.805  1.00  0.00     0.160 HD
BRANCH  34  36
ATOM     36  C   UNL     1     -47.066  34.813  26.216  1.00  0.00     0.034 A 
ATOM     37  C   UNL     1     -46.277  33.878  25.531  1.00  0.00    -0.039 A 
ATOM     38  C   UNL     1     -48.359  34.425  26.580  1.00  0.00    -0.039 A 
ATOM     39  C   UNL     1     -46.782  32.628  25.156  1.00  0.00    -0.056 A 
ATOM     40  H   UNL     1     -45.248  34.121  25.280  1.00  0.00     0.064 H 
ATOM     41  C   UNL     1     -48.873  33.177  26.208  1.00  0.00    -0.056 A 
ATOM     42  H   UNL     1     -48.994  35.079  27.169  1.00  0.00     0.064 H 
ATOM     43  C   UNL     1     -48.091  32.265  25.488  1.00  0.00    -0.034 A 
ATOM     44  H   UNL     1     -46.139  31.939  24.615  1.00  0.00     0.063 H 
ATOM     45  H   UNL     1     -49.885  32.907  26.503  1.00  0.00     0.063 H 
BRANCH  43  46
ATOM     46  C   UNL     1     -48.653  30.920  25.079  1.00  0.00     0.023 C 
ATOM     47  H   UNL     1     -49.651  30.773  25.516  1.00  0.00     0.048 H 
ATOM     48  H   UNL     1     -48.005  30.163  25.539  1.00  0.00     0.048 H 
BRANCH  46  49
ATOM     49  N   UNL     1     -48.697  30.721  23.623  1.00  0.00    -0.299 NA
ATOM     50  C   UNL     1     -49.844  31.406  23.005  1.00  0.00    -0.001 C 
ATOM     51  C   UNL     1     -48.657  29.305  23.271  1.00  0.00    -0.001 C 
ATOM     52  C   UNL     1     -50.311  30.771  21.684  1.00  0.00    -0.035 C 
ATOM     53  H   UNL     1     -50.712  31.424  23.679  1.00  0.00     0.043 H 
ATOM     54  H   UNL     1     -49.568  32.450  22.816  1.00  0.00     0.043 H 
ATOM     55  C   UNL     1     -48.398  29.128  21.767  1.00  0.00    -0.035 C 
ATOM     56  H   UNL     1     -49.591  28.803  23.559  1.00  0.00     0.043 H 
ATOM     57  H   UNL     1     -47.848  28.793  23.808  1.00  0.00     0.043 H 
ATOM     58  C   UNL     1     -49.159  30.145  20.876  1.00  0.00    -0.033 C 
ATOM     59  H   UNL     1     -51.051  29.992  21.914  1.00  0.00     0.029 H 
ATOM     60  H   UNL     1     -50.840  31.526  21.087  1.00  0.00     0.029 H 
ATOM     61  H   UNL     1     -47.319  29.201  21.577  1.00  0.00     0.029 H 
ATOM     62  H   UNL     1     -48.677  28.099  21.504  1.00  0.00     0.029 H 
BRANCH  58  63
ATOM     63  C   UNL     1     -48.195  31.242  20.382  1.00  0.00    -0.060 C 
ATOM     64  H   UNL     1     -47.159  31.044  20.671  1.00  0.00     0.024 H 
ATOM     65  H   UNL     1     -48.218  31.322  19.288  1.00  0.00     0.024 H 
ATOM     66  H   UNL     1     -48.472  32.222  20.788  1.00  0.00     0.024 H 
ENDBRANCH  58  63
BRANCH  58  67
ATOM     67  C   UNL     1     -49.733  29.428  19.641  1.00  0.00    -0.060 C 
ATOM     68  H   UNL     1     -50.703  29.848  19.354  1.00  0.00     0.024 H 
ATOM     69  H   UNL     1     -49.877  28.359  19.837  1.00  0.00     0.024 H 
ATOM     70  H   UNL     1     -49.062  29.523  18.780  1.00  0.00     0.024 H 
ENDBRANCH  58  67
ENDBRANCH  46  49
ENDBRANCH  43  46
ENDBRANCH  34  36
ENDBRANCH   1  34
TORSDOF 11
ENDMDL
MODEL 2
REMARK VINA RESULT:      -8.9      2.415      3.673
REMARK SMILES CNc1cc(N2CCC(O)(CNc3ccc(CN4CCC(C)(C)CC4)cc3)CC2)ncn1
REMARK SMILES IDX 11 1 9 4 6 5 7 6 29 7 8 8 28 11 5 18 3 19 4 20 32 21 31 23
REMARK SMILES IDX 30 24 2 26 1 28 10 32 12 34 13 36 14 37 27 38 15 39 26 41
REMARK SMILES IDX 16 43 17 46 18 49 19 50 25 51 20 52 24 55 21 58 22 63 23 67
REMARK H PARENT 11 2 11 3 7 9 7 10 29 12 29 13 8 14 8 15 28 16 28 17 4 22
REMARK H PARENT 31 25 2 27 1 29 1 30 1 31 10 33 12 35 14 40 27 42 15 44 26 45
REMARK H PARENT 17 47 17 48 19 53 19 54 25 56 25 57 20 59 20 60 24 61 24 62
REMARK H PARENT 22 64 22 65 22 66 23 68 23 69 23 70
REMARK Flexibility Score: inf
ROOT
ATOM      1  C   UNL     1     -46.215  35.188  26.772  1.00  0.00     0.044 C 
ATOM      2  H   UNL     1     -45.885  36.067  26.211  1.00  0.00     0.052 H 
ATOM      3  H   UNL     1     -45.446  34.409  26.691  1.00  0.00     0.052 H 
ENDROOT
BRANCH   1   4
ATOM      4  C   UNL     1     -46.425  35.531  28.279  1.00  0.00     0.085 C 
ATOM      5  N   UNL     1     -46.664  38.170  27.656  1.00  0.00    -0.356 N 
ATOM      6  C   UNL     1     -45.315  37.819  28.121  1.00  0.00     0.022 C 
ATOM      7  C   UNL     1     -47.759  37.712  28.511  1.00  0.00     0.022 C 
ATOM      8  C   UNL     1     -45.310  36.448  28.795  1.00  0.00    -0.005 C 
ATOM      9  H   UNL     1     -44.634  37.795  27.261  1.00  0.00     0.049 H 
ATOM     10  H   UNL     1     -44.926  38.554  28.839  1.00  0.00     0.049 H 
ATOM     11  C   UNL     1     -47.802  36.181  28.528  1.00  0.00    -0.005 C 
ATOM     12  H   UNL     1     -47.604  38.090  29.530  1.00  0.00     0.049 H 
ATOM     13  H   UNL     1     -48.744  38.076  28.196  1.00  0.00     0.049 H 
ATOM     14  H   UNL     1     -45.435  36.580  29.879  1.00  0.00     0.031 H 
ATOM     15  H   UNL     1     -44.326  35.974  28.686  1.00  0.00     0.031 H 
ATOM     16  H   UNL     1     -48.522  35.835  27.775  1.00  0.00     0.031 H 
ATOM     17  H   UNL     1     -48.222  35.854  29.488  1.00  0.00     0.031 H 
BRANCH   5  18
ATOM     18  C   UNL     1     -46.776  39.468  27.134  1.00  0.00     0.134 A 
ATOM     19  C   UNL     1     -45.842  41.371  26.059  1.00  0.00     0.131 A 
ATOM     20  C   UNL     1     -45.685  40.086  26.545  1.00  0.00     0.023 A 
ATOM     21  N   UNL     1     -46.997  42.036  26.169  1.00  0.00    -0.219 NA
ATOM     22  H   UNL     1     -44.719  39.602  26.509  1.00  0.00     0.070 H 
ATOM     23  C   UNL     1     -47.989  41.379  26.778  1.00  0.00     0.120 A 
ATOM     24  N   UNL     1     -47.939  40.130  27.264  1.00  0.00    -0.219 NA
ATOM     25  H   UNL     1     -48.929  41.907  26.889  1.00  0.00     0.106 H 
BRANCH  19  26
ATOM     26  N   UNL     1     -44.797  42.079  25.462  1.00  0.00    -0.373 N 
ATOM     27  H   UNL     1     -44.097  42.170  26.197  1.00  0.00     0.161 HD
BRANCH  26  28
ATOM     28  C   UNL     1     -45.172  43.368  24.908  1.00  0.00     0.005 C 
ATOM     29  H   UNL     1     -45.923  43.831  25.556  1.00  0.00     0.045 H 
ATOM     30  H   UNL     1     -44.318  44.052  24.859  1.00  0.00     0.045 H 
ATOM     31  H   UNL     1     -45.612  43.263  23.909  1.00  0.00     0.045 H 
ENDBRANCH  26  28
ENDBRANCH  19  26
ENDBRANCH   5  18
BRANCH   4  32
ATOM     32  O   UNL     1     -46.358  34.289  29.019  1.00  0.00    -0.388 OA
ATOM     33  H   UNL     1     -45.560  34.313  29.573  1.00  0.00     0.211 HD
ENDBRANCH   4  32
ENDBRANCH   1   4
BRANCH   1  34
ATOM     34  N   UNL     1     -47.469  34.663  26.211  1.00  0.00    -0.382 N 
ATOM     35  H   UNL     1     -48.219  34.785  26.894  1.00  0.00     0.160 HD
BRANCH  34  36
ATOM     36  C   UNL     1     -47.479  33.379  25.655  1.00  0.00     0.034 A 
ATOM     37  C   UNL     1     -48.601  32.567  25.867  1.00  0.00    -0.039 A 
ATOM     38  C   UNL     1     -46.497  32.910  24.777  1.00  0.00    -0.039 A 
ATOM     39  C   UNL     1     -48.709  31.300  25.283  1.00  0.00    -0.056 A 
ATOM     40  H   UNL     1     -49.411  32.921  26.498  1.00  0.00     0.064 H 
ATOM     41  C   UNL     1     -46.595  31.642  24.190  1.00  0.00    -0.056 A 
ATOM     42  H   UNL     1     -45.637  33.521  24.521  1.00  0.00     0.064 H 
ATOM     43  C   UNL     1     -47.701  30.821  24.440  1.00  0.00    -0.034 A 
ATOM     44  H   UNL     1     -49.591  30.698  25.485  1.00  0.00     0.063 H 
ATOM     45  H   UNL     1     -45.812  31.305  23.515  1.00  0.00     0.063 H 
BRANCH  43  46
ATOM     46  C   UNL     1     -47.801  29.447  23.812  1.00  0.00     0.023 C 
ATOM     47  H   UNL     1     -47.122  29.369  22.951  1.00  0.00     0.048 H 
ATOM     48  H   UNL     1     -48.817  29.367  23.406  1.00  0.00     0.048 H 
BRANCH  46  49
ATOM     49  N   UNL     1     -47.554  28.350  24.758  1.00  0.00    -0.299 NA
ATOM     50  C   UNL     1     -46.522  27.420  24.272  1.00  0.00    -0.001 C 
ATOM     51  C   UNL     1     -48.789  27.654  25.111  1.00  0.00    -0.001 C 
ATOM     52  C   UNL     1     -46.647  25.997  24.841  1.00  0.00    -0.035 C 
ATOM     53  H   UNL     1     -46.543  27.333  23.177  1.00  0.00     0.043 H 
ATOM     54  H   UNL     1     -45.537  27.821  24.538  1.00  0.00     0.043 H 
ATOM     55  C   UNL     1     -48.562  26.726  26.313  1.00  0.00    -0.035 C 
ATOM     56  H   UNL     1     -49.173  27.082  24.255  1.00  0.00     0.043 H 
ATOM     57  H   UNL     1     -49.573  28.369  25.388  1.00  0.00     0.043 H 
ATOM     58  C   UNL     1     -47.209  25.968  26.275  1.00  0.00    -0.033 C 
ATOM     59  H   UNL     1     -47.310  25.417  24.186  1.00  0.00     0.029 H 
ATOM     60  H   UNL     1     -45.667  25.503  24.797  1.00  0.00     0.029 H 
ATOM     61  H   UNL     1     -48.634  27.312  27.239  1.00  0.00     0.029 H 
ATOM     62  H   UNL     1     -49.400  26.017  26.344  1.00  0.00     0.029 H 
BRANCH  58  63
ATOM     63  C   UNL     1     -46.209  26.619  27.253  1.00  0.00    -0.060 C 
ATOM     64  H   UNL     1     -46.134  27.701  27.109  1.00  0.00     0.024 H 
ATOM     65  H   UNL     1     -46.511  26.449  28.294  1.00  0.00     0.024 H 
ATOM     66  H   UNL     1     -45.206  26.196  27.129  1.00  0.00     0.024 H 
ENDBRANCH  58  63
BRANCH  58  67
ATOM     67  C   UNL     1     -47.416  24.508  26.713  1.00  0.00    -0.060 C 
ATOM     68  H   UNL     1     -46.477  23.945  26.676  1.00  0.00     0.024 H 
ATOM     69  H   UNL     1     -48.135  23.998  26.061  1.00  0.00     0.024 H 
ATOM     70  H   UNL     1     -47.797  24.452  27.739  1.00  0.00     0.024 H 
ENDBRANCH  58  67
ENDBRANCH  46  49
ENDBRANCH  43  46
ENDBRANCH  34  36
ENDBRANCH   1  34
TORSDOF 11
ENDMDL
MODEL 3
REMARK VINA RESULT:      -8.9      1.766      2.715
REMARK SMILES CNc1cc(N2CCC(O)(CNc3ccc(CN4CCC(C)(C)CC4)cc3)CC2)ncn1
REMARK SMILES IDX 11 1 9 4 6 5 7 6 29 7 8 8 28 11 5 18 3 19 4 20 32 21 31 23
REMARK SMILES IDX 30 24 2 26 1 28 10 32 12 34 13 36 14 37 27 38 15 39 26 41
REMARK SMILES IDX 16 43 17 46 18 49 19 50 25 51 20 52 24 55 21 58 22 63 23 67
REMARK H PARENT 11 2 11 3 7 9 7 10 29 12 29 13 8 14 8 15 28 16 28 17 4 22
REMARK H PARENT 31 25 2 27 1 29 1 30 1 31 10 33 12 35 14 40 27 42 15 44 26 45
REMARK H PARENT 17 47 17 48 19 53 19 54 25 56 25 57 20 59 20 60 24 61 24 62
REMARK H PARENT 22 64 22 65 22 66 23 68 23 69 23 70
REMARK Flexibility Score: inf
ROOT
ATOM      1  C   UNL     1     -46.838  36.440  26.994  1.00  0.00     0.044 C 
ATOM      2  H   UNL     1     -47.553  36.549  26.172  1.00  0.00     0.052 H 
ATOM      3  H   UNL     1     -45.887  36.901  26.696  1.00  0.00     0.052 H 
ENDROOT
BRANCH   1   4
ATOM      4  C   UNL     1     -47.355  37.149  28.284  1.00  0.00     0.085 C 
ATOM      5  N   UNL     1     -45.803  39.315  27.728  1.00  0.00    -0.356 N 
ATOM      6  C   UNL     1     -45.181  38.410  28.705  1.00  0.00     0.022 C 
ATOM      7  C   UNL     1     -47.184  39.697  28.020  1.00  0.00     0.022 C 
ATOM      8  C   UNL     1     -46.205  37.421  29.260  1.00  0.00    -0.005 C 
ATOM      9  H   UNL     1     -44.377  37.849  28.213  1.00  0.00     0.049 H 
ATOM     10  H   UNL     1     -44.743  38.958  29.549  1.00  0.00     0.049 H 
ATOM     11  C   UNL     1     -48.091  38.464  27.954  1.00  0.00    -0.005 C 
ATOM     12  H   UNL     1     -47.232  40.139  29.023  1.00  0.00     0.049 H 
ATOM     13  H   UNL     1     -47.586  40.450  27.333  1.00  0.00     0.049 H 
ATOM     14  H   UNL     1     -46.622  37.823  30.194  1.00  0.00     0.031 H 
ATOM     15  H   UNL     1     -45.709  36.487  29.558  1.00  0.00     0.031 H 
ATOM     16  H   UNL     1     -48.539  38.403  26.953  1.00  0.00     0.031 H 
ATOM     17  H   UNL     1     -48.940  38.619  28.632  1.00  0.00     0.031 H 
BRANCH   5  18
ATOM     18  C   UNL     1     -44.955  40.332  27.261  1.00  0.00     0.134 A 
ATOM     19  C   UNL     1     -42.953  41.605  27.400  1.00  0.00     0.131 A 
ATOM     20  C   UNL     1     -43.745  40.581  27.888  1.00  0.00     0.023 A 
ATOM     21  N   UNL     1     -43.334  42.369  26.371  1.00  0.00    -0.219 NA
ATOM     22  H   UNL     1     -43.445  40.030  28.768  1.00  0.00     0.070 H 
ATOM     23  C   UNL     1     -44.528  42.081  25.845  1.00  0.00     0.120 A 
ATOM     24  N   UNL     1     -45.357  41.103  26.236  1.00  0.00    -0.219 NA
ATOM     25  H   UNL     1     -44.861  42.699  25.019  1.00  0.00     0.106 H 
BRANCH  19  26
ATOM     26  N   UNL     1     -41.725  41.939  27.973  1.00  0.00    -0.373 N 
ATOM     27  H   UNL     1     -41.032  41.490  27.375  1.00  0.00     0.161 HD
BRANCH  26  28
ATOM     28  C   UNL     1     -41.574  41.549  29.364  1.00  0.00     0.005 C 
ATOM     29  H   UNL     1     -42.562  41.512  29.834  1.00  0.00     0.045 H 
ATOM     30  H   UNL     1     -41.132  40.552  29.460  1.00  0.00     0.045 H 
ATOM     31  H   UNL     1     -40.966  42.271  29.920  1.00  0.00     0.045 H 
ENDBRANCH  26  28
ENDBRANCH  19  26
ENDBRANCH   5  18
BRANCH   4  32
ATOM     32  O   UNL     1     -48.284  36.247  28.930  1.00  0.00    -0.388 OA
ATOM     33  H   UNL     1     -48.002  35.337  28.738  1.00  0.00     0.211 HD
ENDBRANCH   4  32
ENDBRANCH   1   4
BRANCH   1  34
ATOM     34  N   UNL     1     -46.597  35.019  27.280  1.00  0.00    -0.382 N 
ATOM     35  H   UNL     1     -45.606  34.882  27.490  1.00  0.00     0.160 HD
BRANCH  34  36
ATOM     36  C   UNL     1     -47.075  34.055  26.385  1.00  0.00     0.034 A 
ATOM     37  C   UNL     1     -46.156  33.398  25.556  1.00  0.00    -0.039 A 
ATOM     38  C   UNL     1     -48.398  33.602  26.371  1.00  0.00    -0.039 A 
ATOM     39  C   UNL     1     -46.553  32.376  24.687  1.00  0.00    -0.056 A 
ATOM     40  H   UNL     1     -45.108  33.684  25.580  1.00  0.00     0.064 H 
ATOM     41  C   UNL     1     -48.805  32.581  25.503  1.00  0.00    -0.056 A 
ATOM     42  H   UNL     1     -49.141  34.025  27.039  1.00  0.00     0.064 H 
ATOM     43  C   UNL     1     -47.888  31.958  24.649  1.00  0.00    -0.034 A 
ATOM     44  H   UNL     1     -45.809  31.903  24.052  1.00  0.00     0.063 H 
ATOM     45  H   UNL     1     -49.843  32.255  25.514  1.00  0.00     0.063 H 
BRANCH  43  46
ATOM     46  C   UNL     1     -48.333  30.861  23.705  1.00  0.00     0.023 C 
ATOM     47  H   UNL     1     -47.796  30.937  22.749  1.00  0.00     0.048 H 
ATOM     48  H   UNL     1     -49.388  31.060  23.479  1.00  0.00     0.048 H 
BRANCH  46  49
ATOM     49  N   UNL     1     -48.189  29.510  24.267  1.00  0.00    -0.299 NA
ATOM     50  C   UNL     1     -48.533  28.465  23.290  1.00  0.00    -0.001 C 
ATOM     51  C   UNL     1     -48.940  29.361  25.510  1.00  0.00    -0.001 C 
ATOM     52  C   UNL     1     -49.005  27.147  23.928  1.00  0.00    -0.035 C 
ATOM     53  H   UNL     1     -49.328  28.798  22.609  1.00  0.00     0.043 H 
ATOM     54  H   UNL     1     -47.651  28.260  22.671  1.00  0.00     0.043 H 
ATOM     55  C   UNL     1     -48.540  28.065  26.231  1.00  0.00    -0.035 C 
ATOM     56  H   UNL     1     -50.022  29.370  25.317  1.00  0.00     0.043 H 
ATOM     57  H   UNL     1     -48.736  30.195  26.192  1.00  0.00     0.043 H 
ATOM     58  C   UNL     1     -48.330  26.857  25.281  1.00  0.00    -0.033 C 
ATOM     59  H   UNL     1     -50.093  27.202  24.074  1.00  0.00     0.029 H 
ATOM     60  H   UNL     1     -48.835  26.323  23.222  1.00  0.00     0.029 H 
ATOM     61  H   UNL     1     -47.625  28.244  26.812  1.00  0.00     0.029 H 
ATOM     62  H   UNL     1     -49.322  27.844  26.969  1.00  0.00     0.029 H 
BRANCH  58  63
ATOM     63  C   UNL     1     -46.824  26.594  25.081  1.00  0.00    -0.060 C 
ATOM     64  H   UNL     1     -46.572  26.412  24.031  1.00  0.00     0.024 H 
ATOM     65  H   UNL     1     -46.227  27.452  25.414  1.00  0.00     0.024 H 
ATOM     66  H   UNL     1     -46.496  25.721  25.658  1.00  0.00     0.024 H 
ENDBRANCH  58  63
BRANCH  58  67
ATOM     67  C   UNL     1     -48.952  25.593  25.900  1.00  0.00    -0.060 C 
ATOM     68  H   UNL     1     -48.786  25.558  26.983  1.00  0.00     0.024 H 
ATOM     69  H   UNL     1     -48.516  24.685  25.467  1.00  0.00     0.024 H 
ATOM     70  H   UNL     1     -50.034  25.559  25.729  1.00  0.00     0.024 H 
ENDBRANCH  58  67
ENDBRANCH  46  49
ENDBRANCH  43  46
ENDBRANCH  34  36
ENDBRANCH   1  34
TORSDOF 11
ENDMDL
MODEL 4
REMARK VINA RESULT:      -8.6      3.131     11.153
REMARK SMILES CNc1cc(N2CCC(O)(CNc3ccc(CN4CCC(C)(C)CC4)cc3)CC2)ncn1
REMARK SMILES IDX 11 1 9 4 6 5 7 6 29 7 8 8 28 11 5 18 3 19 4 20 32 21 31 23
REMARK SMILES IDX 30 24 2 26 1 28 10 32 12 34 13 36 14 37 27 38 15 39 26 41
REMARK SMILES IDX 16 43 17 46 18 49 19 50 25 51 20 52 24 55 21 58 22 63 23 67
REMARK H PARENT 11 2 11 3 7 9 7 10 29 12 29 13 8 14 8 15 28 16 28 17 4 22
REMARK H PARENT 31 25 2 27 1 29 1 30 1 31 10 33 12 35 14 40 27 42 15 44 26 45
REMARK H PARENT 17 47 17 48 19 53 19 54 25 56 25 57 20 59 20 60 24 61 24 62
REMARK H PARENT 22 64 22 65 22 66 23 68 23 69 23 70
REMARK Flexibility Score: inf
ROOT
ATOM      1  C   UNL     1     -46.099  31.643  23.597  1.00  0.00     0.044 C 
ATOM      2  H   UNL     1     -45.668  30.956  24.330  1.00  0.00     0.052 H 
ATOM      3  H   UNL     1     -45.385  32.457  23.415  1.00  0.00     0.052 H 
ENDROOT
BRANCH   1   4
ATOM      4  C   UNL     1     -46.384  30.916  22.246  1.00  0.00     0.085 C 
ATOM      5  N   UNL     1     -47.073  28.656  23.598  1.00  0.00    -0.356 N 
ATOM      6  C   UNL     1     -45.690  28.619  23.105  1.00  0.00     0.022 C 
ATOM      7  C   UNL     1     -48.082  29.024  22.605  1.00  0.00     0.022 C 
ATOM      8  C   UNL     1     -45.453  29.712  22.063  1.00  0.00    -0.005 C 
ATOM      9  H   UNL     1     -45.004  28.778  23.947  1.00  0.00     0.049 H 
ATOM     10  H   UNL     1     -45.443  27.652  22.647  1.00  0.00     0.049 H 
ATOM     11  C   UNL     1     -47.857  30.467  22.143  1.00  0.00    -0.005 C 
ATOM     12  H   UNL     1     -48.007  28.344  21.746  1.00  0.00     0.049 H 
ATOM     13  H   UNL     1     -49.110  28.942  22.972  1.00  0.00     0.049 H 
ATOM     14  H   UNL     1     -45.612  29.292  21.060  1.00  0.00     0.031 H 
ATOM     15  H   UNL     1     -44.400  30.022  22.069  1.00  0.00     0.031 H 
ATOM     16  H   UNL     1     -48.496  31.135  22.734  1.00  0.00     0.031 H 
ATOM     17  H   UNL     1     -48.225  30.565  21.113  1.00  0.00     0.031 H 
BRANCH   5  18
ATOM     18  C   UNL     1     -47.404  27.606  24.469  1.00  0.00     0.134 A 
ATOM     19  C   UNL     1     -48.927  26.508  25.926  1.00  0.00     0.131 A 
ATOM     20  C   UNL     1     -48.655  27.553  25.062  1.00  0.00     0.023 A 
ATOM     21  N   UNL     1     -48.017  25.575  26.222  1.00  0.00    -0.219 NA
ATOM     22  H   UNL     1     -49.386  28.333  24.901  1.00  0.00     0.070 H 
ATOM     23  C   UNL     1     -46.826  25.719  25.631  1.00  0.00     0.120 A 
ATOM     24  N   UNL     1     -46.474  26.684  24.770  1.00  0.00    -0.219 NA
ATOM     25  H   UNL     1     -46.069  24.980  25.870  1.00  0.00     0.106 H 
BRANCH  19  26
ATOM     26  N   UNL     1     -50.154  26.378  26.581  1.00  0.00    -0.373 N 
ATOM     27  H   UNL     1     -50.104  25.468  27.038  1.00  0.00     0.161 HD
BRANCH  26  28
ATOM     28  C   UNL     1     -51.319  26.490  25.721  1.00  0.00     0.005 C 
ATOM     29  H   UNL     1     -51.327  25.650  25.019  1.00  0.00     0.045 H 
ATOM     30  H   UNL     1     -52.251  26.445  26.293  1.00  0.00     0.045 H 
ATOM     31  H   UNL     1     -51.297  27.416  25.134  1.00  0.00     0.045 H 
ENDBRANCH  26  28
ENDBRANCH  19  26
ENDBRANCH   5  18
BRANCH   4  32
ATOM     32  O   UNL     1     -46.110  31.857  21.182  1.00  0.00    -0.388 OA
ATOM     33  H   UNL     1     -46.283  32.751  21.520  1.00  0.00     0.211 HD
ENDBRANCH   4  32
ENDBRANCH   1   4
BRANCH   1  34
ATOM     34  N   UNL     1     -47.347  32.226  24.110  1.00  0.00    -0.382 N 
ATOM     35  H   UNL     1     -47.843  32.687  23.344  1.00  0.00     0.160 HD
BRANCH  34  36
ATOM     36  C   UNL     1     -47.301  33.030  25.254  1.00  0.00     0.034 A 
ATOM     37  C   UNL     1     -46.052  33.477  25.709  1.00  0.00    -0.039 A 
ATOM     38  C   UNL     1     -48.439  33.536  25.890  1.00  0.00    -0.039 A 
ATOM     39  C   UNL     1     -45.937  34.339  26.805  1.00  0.00    -0.056 A 
ATOM     40  H   UNL     1     -45.147  33.150  25.205  1.00  0.00     0.064 H 
ATOM     41  C   UNL     1     -48.333  34.398  26.989  1.00  0.00    -0.056 A 
ATOM     42  H   UNL     1     -49.434  33.281  25.541  1.00  0.00     0.064 H 
ATOM     43  C   UNL     1     -47.080  34.807  27.461  1.00  0.00    -0.034 A 
ATOM     44  H   UNL     1     -44.948  34.650  27.131  1.00  0.00     0.063 H 
ATOM     45  H   UNL     1     -49.238  34.771  27.463  1.00  0.00     0.063 H 
BRANCH  43  46
ATOM     46  C   UNL     1     -46.969  35.731  28.655  1.00  0.00     0.023 C 
ATOM     47  H   UNL     1     -46.176  35.386  29.333  1.00  0.00     0.048 H 
ATOM     48  H   UNL     1     -47.910  35.630  29.210  1.00  0.00     0.048 H 
BRANCH  46  49
ATOM     49  N   UNL     1     -46.754  37.138  28.289  1.00  0.00    -0.299 NA
ATOM     50  C   UNL     1     -47.258  37.443  26.940  1.00  0.00    -0.001 C 
ATOM     51  C   UNL     1     -45.356  37.529  28.447  1.00  0.00    -0.001 C 
ATOM     52  C   UNL     1     -46.551  38.630  26.265  1.00  0.00    -0.035 C 
ATOM     53  H   UNL     1     -47.155  36.581  26.269  1.00  0.00     0.043 H 
ATOM     54  H   UNL     1     -48.330  37.664  27.010  1.00  0.00     0.043 H 
ATOM     55  C   UNL     1     -45.207  39.055  28.357  1.00  0.00    -0.035 C 
ATOM     56  H   UNL     1     -44.725  37.039  27.692  1.00  0.00     0.043 H 
ATOM     57  H   UNL     1     -44.972  37.217  29.426  1.00  0.00     0.043 H 
ATOM     58  C   UNL     1     -46.094  39.708  27.265  1.00  0.00    -0.033 C 
ATOM     59  H   UNL     1     -45.674  38.251  25.722  1.00  0.00     0.029 H 
ATOM     60  H   UNL     1     -47.216  39.061  25.504  1.00  0.00     0.029 H 
ATOM     61  H   UNL     1     -45.436  39.497  29.336  1.00  0.00     0.029 H 
ATOM     62  H   UNL     1     -44.146  39.271  28.174  1.00  0.00     0.029 H 
BRANCH  58  63
ATOM     63  C   UNL     1     -47.317  40.390  27.913  1.00  0.00    -0.060 C 
ATOM     64  H   UNL     1     -47.224  40.459  29.001  1.00  0.00     0.024 H 
ATOM     65  H   UNL     1     -47.445  41.410  27.532  1.00  0.00     0.024 H 
ATOM     66  H   UNL     1     -48.238  39.838  27.692  1.00  0.00     0.024 H 
ENDBRANCH  58  63
BRANCH  58  67
ATOM     67  C   UNL     1     -45.291  40.789  26.519  1.00  0.00    -0.060 C 
ATOM     68  H   UNL     1     -45.422  40.703  25.435  1.00  0.00     0.024 H 
ATOM     69  H   UNL     1     -44.219  40.703  26.733  1.00  0.00     0.024 H 
ATOM     70  H   UNL     1     -45.611  41.794  26.813  1.00  0.00     0.024 H 
ENDBRANCH  58  67
ENDBRANCH  46  49
ENDBRANCH  43  46
ENDBRANCH  34  36
ENDBRANCH   1  34
TORSDOF 11
ENDMDL
MODEL 5
REMARK VINA RESULT:      -8.4      2.893     11.324
REMARK SMILES CNc1cc(N2CCC(O)(CNc3ccc(CN4CCC(C)(C)CC4)cc3)CC2)ncn1
REMARK SMILES IDX 11 1 9 4 6 5 7 6 29 7 8 8 28 11 5 18 3 19 4 20 32 21 31 23
REMARK SMILES IDX 30 24 2 26 1 28 10 32 12 34 13 36 14 37 27 38 15 39 26 41
REMARK SMILES IDX 16 43 17 46 18 49 19 50 25 51 20 52 24 55 21 58 22 63 23 67
REMARK H PARENT 11 2 11 3 7 9 7 10 29 12 29 13 8 14 8 15 28 16 28 17 4 22
REMARK H PARENT 31 25 2 27 1 29 1 30 1 31 10 33 12 35 14 40 27 42 15 44 26 45
REMARK H PARENT 17 47 17 48 19 53 19 54 25 56 25 57 20 59 20 60 24 61 24 62
REMARK H PARENT 22 64 22 65 22 66 23 68 23 69 23 70
REMARK Flexibility Score: inf
ROOT
ATOM      1  C   UNL     1     -46.302  31.614  24.297  1.00  0.00     0.044 C 
ATOM      2  H   UNL     1     -46.188  30.741  24.946  1.00  0.00     0.052 H 
ATOM      3  H   UNL     1     -45.433  32.271  24.436  1.00  0.00     0.052 H 
ENDROOT
BRANCH   1   4
ATOM      4  C   UNL     1     -46.376  31.193  22.797  1.00  0.00     0.085 C 
ATOM      5  N   UNL     1     -47.912  29.047  23.465  1.00  0.00    -0.356 N 
ATOM      6  C   UNL     1     -46.496  28.697  23.295  1.00  0.00     0.022 C 
ATOM      7  C   UNL     1     -48.502  29.818  22.371  1.00  0.00     0.022 C 
ATOM      8  C   UNL     1     -45.739  29.816  22.580  1.00  0.00    -0.005 C 
ATOM      9  H   UNL     1     -46.044  28.538  24.282  1.00  0.00     0.049 H 
ATOM     10  H   UNL     1     -46.369  27.774  22.713  1.00  0.00     0.049 H 
ATOM     11  C   UNL     1     -47.830  31.191  22.279  1.00  0.00    -0.005 C 
ATOM     12  H   UNL     1     -48.361  29.273  21.429  1.00  0.00     0.049 H 
ATOM     13  H   UNL     1     -49.581  29.975  22.476  1.00  0.00     0.049 H 
ATOM     14  H   UNL     1     -45.717  29.603  21.502  1.00  0.00     0.031 H 
ATOM     15  H   UNL     1     -44.684  29.816  22.883  1.00  0.00     0.031 H 
ATOM     16  H   UNL     1     -48.429  31.921  22.839  1.00  0.00     0.031 H 
ATOM     17  H   UNL     1     -47.875  31.532  21.237  1.00  0.00     0.031 H 
BRANCH   5  18
ATOM     18  C   UNL     1     -48.701  28.019  24.005  1.00  0.00     0.134 A 
ATOM     19  C   UNL     1     -49.037  26.238  25.542  1.00  0.00     0.131 A 
ATOM     20  C   UNL     1     -48.228  27.248  25.055  1.00  0.00     0.023 A 
ATOM     21  N   UNL     1     -50.235  25.969  25.013  1.00  0.00    -0.219 NA
ATOM     22  H   UNL     1     -47.234  27.392  25.454  1.00  0.00     0.070 H 
ATOM     23  C   UNL     1     -50.601  26.740  23.984  1.00  0.00     0.120 A 
ATOM     24  N   UNL     1     -49.897  27.750  23.454  1.00  0.00    -0.219 NA
ATOM     25  H   UNL     1     -51.564  26.528  23.533  1.00  0.00     0.106 H 
BRANCH  19  26
ATOM     26  N   UNL     1     -48.642  25.401  26.587  1.00  0.00    -0.373 N 
ATOM     27  H   UNL     1     -49.149  25.749  27.400  1.00  0.00     0.161 HD
BRANCH  26  28
ATOM     28  C   UNL     1     -47.210  25.353  26.822  1.00  0.00     0.005 C 
ATOM     29  H   UNL     1     -46.854  26.358  27.071  1.00  0.00     0.045 H 
ATOM     30  H   UNL     1     -46.958  24.701  27.665  1.00  0.00     0.045 H 
ATOM     31  H   UNL     1     -46.667  25.019  25.930  1.00  0.00     0.045 H 
ENDBRANCH  26  28
ENDBRANCH  19  26
ENDBRANCH   5  18
BRANCH   4  32
ATOM     32  O   UNL     1     -45.615  32.160  22.038  1.00  0.00    -0.388 OA
ATOM     33  H   UNL     1     -45.585  32.987  22.548  1.00  0.00     0.211 HD
ENDBRANCH   4  32
ENDBRANCH   1   4
BRANCH   1  34
ATOM     34  N   UNL     1     -47.514  32.365  24.655  1.00  0.00    -0.382 N 
ATOM     35  H   UNL     1     -48.049  32.562  23.806  1.00  0.00     0.160 HD
BRANCH  34  36
ATOM     36  C   UNL     1     -47.397  33.496  25.469  1.00  0.00     0.034 A 
ATOM     37  C   UNL     1     -48.538  33.959  26.140  1.00  0.00    -0.039 A 
ATOM     38  C   UNL     1     -46.177  34.109  25.771  1.00  0.00    -0.039 A 
ATOM     39  C   UNL     1     -48.479  35.043  27.023  1.00  0.00    -0.056 A 
ATOM     40  H   UNL     1     -49.495  33.472  25.974  1.00  0.00     0.064 H 
ATOM     41  C   UNL     1     -46.109  35.195  26.652  1.00  0.00    -0.056 A 
ATOM     42  H   UNL     1     -45.249  33.751  25.335  1.00  0.00     0.064 H 
ATOM     43  C   UNL     1     -47.261  35.676  27.286  1.00  0.00    -0.034 A 
ATOM     44  H   UNL     1     -49.391  35.376  27.511  1.00  0.00     0.063 H 
ATOM     45  H   UNL     1     -45.144  35.652  26.862  1.00  0.00     0.063 H 
BRANCH  43  46
ATOM     46  C   UNL     1     -47.186  36.857  28.231  1.00  0.00     0.023 C 
ATOM     47  H   UNL     1     -46.783  36.543  29.204  1.00  0.00     0.048 H 
ATOM     48  H   UNL     1     -48.222  37.168  28.417  1.00  0.00     0.048 H 
BRANCH  46  49
ATOM     49  N   UNL     1     -46.413  37.988  27.698  1.00  0.00    -0.299 NA
ATOM     50  C   UNL     1     -45.138  38.172  28.409  1.00  0.00    -0.001 C 
ATOM     51  C   UNL     1     -47.203  39.215  27.672  1.00  0.00    -0.001 C 
ATOM     52  C   UNL     1     -44.601  39.612  28.361  1.00  0.00    -0.035 C 
ATOM     53  H   UNL     1     -45.225  37.894  29.468  1.00  0.00     0.043 H 
ATOM     54  H   UNL     1     -44.391  37.502  27.967  1.00  0.00     0.043 H 
ATOM     55  C   UNL     1     -46.495  40.297  26.843  1.00  0.00    -0.035 C 
ATOM     56  H   UNL     1     -47.392  39.580  28.691  1.00  0.00     0.043 H 
ATOM     57  H   UNL     1     -48.184  39.038  27.216  1.00  0.00     0.043 H 
ATOM     58  C   UNL     1     -44.959  40.347  27.056  1.00  0.00    -0.033 C 
ATOM     59  H   UNL     1     -45.019  40.168  29.211  1.00  0.00     0.029 H 
ATOM     60  H   UNL     1     -43.513  39.597  28.514  1.00  0.00     0.029 H 
ATOM     61  H   UNL     1     -46.718  40.138  25.779  1.00  0.00     0.029 H 
ATOM     62  H   UNL     1     -46.952  41.261  27.101  1.00  0.00     0.029 H 
BRANCH  58  63
ATOM     63  C   UNL     1     -44.236  39.694  25.860  1.00  0.00    -0.060 C 
ATOM     64  H   UNL     1     -43.551  38.901  26.174  1.00  0.00     0.024 H 
ATOM     65  H   UNL     1     -44.954  39.247  25.163  1.00  0.00     0.024 H 
ATOM     66  H   UNL     1     -43.653  40.435  25.301  1.00  0.00     0.024 H 
ENDBRANCH  58  63
BRANCH  58  67
ATOM     67  C   UNL     1     -44.493  41.810  27.149  1.00  0.00    -0.060 C 
ATOM     68  H   UNL     1     -43.538  41.956  26.633  1.00  0.00     0.024 H 
ATOM     69  H   UNL     1     -44.358  42.116  28.193  1.00  0.00     0.024 H 
ATOM     70  H   UNL     1     -45.223  42.488  26.694  1.00  0.00     0.024 H 
ENDBRANCH  58  67
ENDBRANCH  46  49
ENDBRANCH  43  46
ENDBRANCH  34  36
ENDBRANCH   1  34
TORSDOF 11
ENDMDL
MODEL 6
REMARK VINA RESULT:      -8.4      1.951      3.267
REMARK SMILES CNc1cc(N2CCC(O)(CNc3ccc(CN4CCC(C)(C)CC4)cc3)CC2)ncn1
REMARK SMILES IDX 11 1 9 4 6 5 7 6 29 7 8 8 28 11 5 18 3 19 4 20 32 21 31 23
REMARK SMILES IDX 30 24 2 26 1 28 10 32 12 34 13 36 14 37 27 38 15 39 26 41
REMARK SMILES IDX 16 43 17 46 18 49 19 50 25 51 20 52 24 55 21 58 22 63 23 67
REMARK H PARENT 11 2 11 3 7 9 7 10 29 12 29 13 8 14 8 15 28 16 28 17 4 22
REMARK H PARENT 31 25 2 27 1 29 1 30 1 31 10 33 12 35 14 40 27 42 15 44 26 45
REMARK H PARENT 17 47 17 48 19 53 19 54 25 56 25 57 20 59 20 60 24 61 24 62
REMARK H PARENT 22 64 22 65 22 66 23 68 23 69 23 70
REMARK Flexibility Score: inf
ROOT
ATOM      1  C   UNL     1     -47.032  36.129  26.687  1.00  0.00     0.044 C 
ATOM      2  H   UNL     1     -47.633  36.150  25.773  1.00  0.00     0.052 H 
ATOM      3  H   UNL     1     -46.163  36.786  26.552  1.00  0.00     0.052 H 
ENDROOT
BRANCH   1   4
ATOM      4  C   UNL     1     -47.856  36.634  27.912  1.00  0.00     0.085 C 
ATOM      5  N   UNL     1     -45.865  38.380  28.542  1.00  0.00    -0.356 N 
ATOM      6  C   UNL     1     -45.805  37.145  29.335  1.00  0.00     0.022 C 
ATOM      7  C   UNL     1     -47.171  39.037  28.504  1.00  0.00     0.022 C 
ATOM      8  C   UNL     1     -47.112  36.362  29.225  1.00  0.00    -0.005 C 
ATOM      9  H   UNL     1     -44.984  36.519  28.964  1.00  0.00     0.049 H 
ATOM     10  H   UNL     1     -45.618  37.349  30.398  1.00  0.00     0.049 H 
ATOM     11  C   UNL     1     -48.186  38.137  27.793  1.00  0.00    -0.005 C 
ATOM     12  H   UNL     1     -47.506  39.234  29.531  1.00  0.00     0.049 H 
ATOM     13  H   UNL     1     -47.160  40.006  27.993  1.00  0.00     0.049 H 
ATOM     14  H   UNL     1     -47.767  36.635  30.064  1.00  0.00     0.031 H 
ATOM     15  H   UNL     1     -46.925  35.288  29.358  1.00  0.00     0.031 H 
ATOM     16  H   UNL     1     -48.242  38.427  26.736  1.00  0.00     0.031 H 
ATOM     17  H   UNL     1     -49.185  38.352  28.195  1.00  0.00     0.031 H 
BRANCH   5  18
ATOM     18  C   UNL     1     -44.746  39.216  28.689  1.00  0.00     0.134 A 
ATOM     19  C   UNL     1     -43.309  40.933  27.893  1.00  0.00     0.131 A 
ATOM     20  C   UNL     1     -44.430  40.145  27.710  1.00  0.00     0.023 A 
ATOM     21  N   UNL     1     -42.516  40.805  28.961  1.00  0.00    -0.219 NA
ATOM     22  H   UNL     1     -45.008  40.220  26.800  1.00  0.00     0.070 H 
ATOM     23  C   UNL     1     -42.876  39.865  29.841  1.00  0.00     0.120 A 
ATOM     24  N   UNL     1     -43.949  39.066  29.761  1.00  0.00    -0.219 NA
ATOM     25  H   UNL     1     -42.237  39.736  30.708  1.00  0.00     0.106 H 
BRANCH  19  26
ATOM     26  N   UNL     1     -42.903  41.886  26.956  1.00  0.00    -0.373 N 
ATOM     27  H   UNL     1     -41.897  41.971  27.097  1.00  0.00     0.161 HD
BRANCH  26  28
ATOM     28  C   UNL     1     -43.574  43.170  27.062  1.00  0.00     0.005 C 
ATOM     29  H   UNL     1     -42.944  43.942  26.608  1.00  0.00     0.045 H 
ATOM     30  H   UNL     1     -44.529  43.174  26.527  1.00  0.00     0.045 H 
ATOM     31  H   UNL     1     -43.744  43.450  28.109  1.00  0.00     0.045 H 
ENDBRANCH  26  28
ENDBRANCH  19  26
ENDBRANCH   5  18
BRANCH   4  32
ATOM     32  O   UNL     1     -49.094  35.888  27.938  1.00  0.00    -0.388 OA
ATOM     33  H   UNL     1     -49.087  35.323  28.729  1.00  0.00     0.211 HD
ENDBRANCH   4  32
ENDBRANCH   1   4
BRANCH   1  34
ATOM     34  N   UNL     1     -46.548  34.767  26.952  1.00  0.00    -0.382 N 
ATOM     35  H   UNL     1     -45.530  34.783  27.038  1.00  0.00     0.160 HD
BRANCH  34  36
ATOM     36  C   UNL     1     -46.982  33.720  26.132  1.00  0.00     0.034 A 
ATOM     37  C   UNL     1     -48.336  33.360  26.166  1.00  0.00    -0.039 A 
ATOM     38  C   UNL     1     -46.173  33.106  25.170  1.00  0.00    -0.039 A 
ATOM     39  C   UNL     1     -48.852  32.369  25.323  1.00  0.00    -0.056 A 
ATOM     40  H   UNL     1     -49.008  33.855  26.861  1.00  0.00     0.064 H 
ATOM     41  C   UNL     1     -46.681  32.112  24.324  1.00  0.00    -0.056 A 
ATOM     42  H   UNL     1     -45.133  33.390  25.050  1.00  0.00     0.064 H 
ATOM     43  C   UNL     1     -48.026  31.730  24.393  1.00  0.00    -0.034 A 
ATOM     44  H   UNL     1     -49.906  32.113  25.392  1.00  0.00     0.063 H 
ATOM     45  H   UNL     1     -46.024  31.651  23.589  1.00  0.00     0.063 H 
BRANCH  43  46
ATOM     46  C   UNL     1     -48.570  30.649  23.483  1.00  0.00     0.023 C 
ATOM     47  H   UNL     1     -48.049  30.665  22.516  1.00  0.00     0.048 H 
ATOM     48  H   UNL     1     -49.612  30.921  23.272  1.00  0.00     0.048 H 
BRANCH  46  49
ATOM     49  N   UNL     1     -48.514  29.303  24.072  1.00  0.00    -0.299 NA
ATOM     50  C   UNL     1     -48.972  29.292  25.471  1.00  0.00    -0.001 C 
ATOM     51  C   UNL     1     -47.189  28.707  23.930  1.00  0.00    -0.001 C 
ATOM     52  C   UNL     1     -48.383  28.146  26.310  1.00  0.00    -0.035 C 
ATOM     53  H   UNL     1     -48.720  30.230  25.984  1.00  0.00     0.043 H 
ATOM     54  H   UNL     1     -50.065  29.210  25.481  1.00  0.00     0.043 H 
ATOM     55  C   UNL     1     -47.230  27.210  24.270  1.00  0.00    -0.035 C 
ATOM     56  H   UNL     1     -46.457  29.222  24.567  1.00  0.00     0.043 H 
ATOM     57  H   UNL     1     -46.828  28.801  22.898  1.00  0.00     0.043 H 
ATOM     58  C   UNL     1     -48.127  26.868  25.489  1.00  0.00    -0.033 C 
ATOM     59  H   UNL     1     -47.434  28.486  26.747  1.00  0.00     0.029 H 
ATOM     60  H   UNL     1     -49.050  27.938  27.157  1.00  0.00     0.029 H 
ATOM     61  H   UNL     1     -47.572  26.650  23.389  1.00  0.00     0.029 H 
ATOM     62  H   UNL     1     -46.197  26.884  24.447  1.00  0.00     0.029 H 
BRANCH  58  63
ATOM     63  C   UNL     1     -49.463  26.263  25.013  1.00  0.00    -0.060 C 
ATOM     64  H   UNL     1     -49.979  25.719  25.810  1.00  0.00     0.024 H 
ATOM     65  H   UNL     1     -50.145  27.046  24.660  1.00  0.00     0.024 H 
ATOM     66  H   UNL     1     -49.306  25.565  24.182  1.00  0.00     0.024 H 
ENDBRANCH  58  63
BRANCH  58  67
ATOM     67  C   UNL     1     -47.425  25.824  26.376  1.00  0.00    -0.060 C 
ATOM     68  H   UNL     1     -48.040  25.564  27.245  1.00  0.00     0.024 H 
ATOM     69  H   UNL     1     -46.466  26.202  26.747  1.00  0.00     0.024 H 
ATOM     70  H   UNL     1     -47.228  24.900  25.820  1.00  0.00     0.024 H 
ENDBRANCH  58  67
ENDBRANCH  46  49
ENDBRANCH  43  46
ENDBRANCH  34  36
ENDBRANCH   1  34
TORSDOF 11
ENDMDL
