MODEL 1
REMARK VINA RESULT:     -10.9      0.000      0.000
REMARK SMILES Nc1ccc2ccc(CC[C@H]3C[C@@H](n4ccc5c(N)ncnc54)[C@H](O)[C@@H]3O)cc2c1
REMARK SMILES IDX 10 1 9 4 8 7 2 8 3 9 30 10 4 11 29 13 5 15 28 17 6 18 7 20
REMARK SMILES IDX 1 23 11 26 12 27 26 28 13 30 24 33 27 37 14 39 15 40 23 41
REMARK SMILES IDX 16 42 17 44 22 45 18 47 21 48 20 49 19 51 25 54
REMARK H PARENT 10 2 10 3 9 5 9 6 3 12 30 14 4 16 28 19 6 21 7 22 1 24 1 25
REMARK H PARENT 11 29 12 31 12 32 26 34 13 35 24 36 27 38 15 43 16 46 21 50
REMARK H PARENT 19 52 19 53 25 55
REMARK Flexibility Score: inf
ROOT
ATOM      1  C   UNL     1     -47.218  36.212  27.144  1.00  0.00    -0.044 C 
ATOM      2  H   UNL     1     -47.658  37.209  27.232  1.00  0.00     0.027 H 
ATOM      3  H   UNL     1     -46.604  36.233  26.233  1.00  0.00     0.027 H 
ENDROOT
BRANCH   1   4
ATOM      4  C   UNL     1     -48.308  35.153  26.909  1.00  0.00    -0.028 C 
ATOM      5  H   UNL     1     -49.192  35.634  26.472  1.00  0.00     0.032 H 
ATOM      6  H   UNL     1     -48.631  34.761  27.882  1.00  0.00     0.032 H 
BRANCH   4   7
ATOM      7  C   UNL     1     -47.882  33.970  26.076  1.00  0.00    -0.047 A 
ATOM      8  C   UNL     1     -48.745  29.489  24.304  1.00  0.00     0.032 A 
ATOM      9  C   UNL     1     -47.523  29.535  23.636  1.00  0.00    -0.039 A 
ATOM     10  C   UNL     1     -49.160  30.615  25.020  1.00  0.00    -0.031 A 
ATOM     11  C   UNL     1     -46.680  30.643  23.763  1.00  0.00    -0.052 A 
ATOM     12  H   UNL     1     -47.211  28.706  23.007  1.00  0.00     0.064 H 
ATOM     13  C   UNL     1     -48.327  31.741  25.164  1.00  0.00    -0.016 A 
ATOM     14  H   UNL     1     -50.147  30.619  25.476  1.00  0.00     0.065 H 
ATOM     15  C   UNL     1     -47.066  31.750  24.531  1.00  0.00    -0.018 A 
ATOM     16  H   UNL     1     -45.725  30.639  23.243  1.00  0.00     0.063 H 
ATOM     17  C   UNL     1     -48.725  32.858  25.918  1.00  0.00    -0.051 A 
ATOM     18  C   UNL     1     -46.237  32.872  24.668  1.00  0.00    -0.054 A 
ATOM     19  H   UNL     1     -49.706  32.860  26.388  1.00  0.00     0.063 H 
ATOM     20  C   UNL     1     -46.642  33.972  25.429  1.00  0.00    -0.058 A 
ATOM     21  H   UNL     1     -45.266  32.902  24.180  1.00  0.00     0.063 H 
ATOM     22  H   UNL     1     -45.972  34.825  25.520  1.00  0.00     0.063 H 
BRANCH   8  23
ATOM     23  N   UNL     1     -49.634  28.431  24.077  1.00  0.00    -0.399 N 
ATOM     24  H   UNL     1     -49.271  27.523  24.350  1.00  0.00     0.156 HD
ATOM     25  H   UNL     1     -50.572  28.594  24.429  1.00  0.00     0.156 HD
ENDBRANCH   8  23
ENDBRANCH   4   7
ENDBRANCH   1   4
BRANCH   1  26
ATOM     26  C   UNL     1     -46.271  35.923  28.328  1.00  0.00    -0.010 C 
ATOM     27  C   UNL     1     -44.922  36.658  28.128  1.00  0.00    -0.024 C 
ATOM     28  C   UNL     1     -46.739  36.443  29.687  1.00  0.00     0.085 C 
ATOM     29  H   UNL     1     -46.080  34.843  28.367  1.00  0.00     0.033 H 
ATOM     30  C   UNL     1     -44.947  37.903  29.044  1.00  0.00     0.064 C 
ATOM     31  H   UNL     1     -44.723  36.892  27.076  1.00  0.00     0.029 H 
ATOM     32  H   UNL     1     -44.105  36.002  28.457  1.00  0.00     0.029 H 
ATOM     33  C   UNL     1     -46.351  37.924  29.675  1.00  0.00     0.101 C 
ATOM     34  H   UNL     1     -47.793  36.300  29.914  1.00  0.00     0.063 H 
ATOM     35  H   UNL     1     -44.202  37.764  29.839  1.00  0.00     0.056 H 
ATOM     36  H   UNL     1     -47.062  38.513  29.085  1.00  0.00     0.065 H 
BRANCH  28  37
ATOM     37  O   UNL     1     -46.004  35.763  30.714  1.00  0.00    -0.390 OA
ATOM     38  H   UNL     1     -46.667  35.271  31.239  1.00  0.00     0.211 HD
ENDBRANCH  28  37
BRANCH  30  39
ATOM     39  N   UNL     1     -44.602  39.136  28.352  1.00  0.00    -0.327 N 
ATOM     40  C   UNL     1     -45.180  39.607  27.195  1.00  0.00     0.007 A 
ATOM     41  C   UNL     1     -43.618  40.010  28.754  1.00  0.00     0.145 A 
ATOM     42  C   UNL     1     -44.576  40.803  26.869  1.00  0.00    -0.031 A 
ATOM     43  H   UNL     1     -45.973  39.068  26.696  1.00  0.00     0.082 H 
ATOM     44  C   UNL     1     -43.581  41.064  27.850  1.00  0.00     0.061 A 
ATOM     45  N   UNL     1     -42.830  39.867  29.833  1.00  0.00    -0.218 NA
ATOM     46  H   UNL     1     -44.821  41.423  26.018  1.00  0.00     0.065 H 
ATOM     47  C   UNL     1     -42.639  42.074  28.094  1.00  0.00     0.136 A 
ATOM     48  C   UNL     1     -41.975  40.894  29.965  1.00  0.00     0.120 A 
ATOM     49  N   UNL     1     -41.832  41.969  29.167  1.00  0.00    -0.219 NA
ATOM     50  H   UNL     1     -41.312  40.851  30.824  1.00  0.00     0.106 H 
BRANCH  47  51
ATOM     51  N   UNL     1     -42.468  43.180  27.274  1.00  0.00    -0.383 N 
ATOM     52  H   UNL     1     -43.363  43.621  27.087  1.00  0.00     0.158 HD
ATOM     53  H   UNL     1     -41.716  43.795  27.550  1.00  0.00     0.158 HD
ENDBRANCH  47  51
ENDBRANCH  30  39
BRANCH  33  54
ATOM     54  O   UNL     1     -46.340  38.429  31.011  1.00  0.00    -0.388 OA
ATOM     55  H   UNL     1     -45.998  37.719  31.583  1.00  0.00     0.211 HD
ENDBRANCH  33  54
ENDBRANCH   1  26
TORSDOF 8
ENDMDL
MODEL 2
REMARK VINA RESULT:      -9.9      3.947     11.099
REMARK SMILES Nc1ccc2ccc(CC[C@H]3C[C@@H](n4ccc5c(N)ncnc54)[C@H](O)[C@@H]3O)cc2c1
REMARK SMILES IDX 10 1 9 4 8 7 2 8 3 9 30 10 4 11 29 13 5 15 28 17 6 18 7 20
REMARK SMILES IDX 1 23 11 26 12 27 26 28 13 30 24 33 27 37 14 39 15 40 23 41
REMARK SMILES IDX 16 42 17 44 22 45 18 47 21 48 20 49 19 51 25 54
REMARK H PARENT 10 2 10 3 9 5 9 6 3 12 30 14 4 16 28 19 6 21 7 22 1 24 1 25
REMARK H PARENT 11 29 12 31 12 32 26 34 13 35 24 36 27 38 15 43 16 46 21 50
REMARK H PARENT 19 52 19 53 25 55
REMARK Flexibility Score: inf
ROOT
ATOM      1  C   UNL     1     -48.051  31.852  25.565  1.00  0.00    -0.044 C 
ATOM      2  H   UNL     1     -48.497  30.961  26.015  1.00  0.00     0.027 H 
ATOM      3  H   UNL     1     -47.028  31.910  25.961  1.00  0.00     0.027 H 
ENDROOT
BRANCH   1   4
ATOM      4  C   UNL     1     -48.774  33.123  26.042  1.00  0.00    -0.028 C 
ATOM      5  H   UNL     1     -49.531  32.851  26.788  1.00  0.00     0.032 H 
ATOM      6  H   UNL     1     -49.328  33.549  25.195  1.00  0.00     0.032 H 
BRANCH   4   7
ATOM      7  C   UNL     1     -47.874  34.211  26.573  1.00  0.00    -0.047 A 
ATOM      8  C   UNL     1     -47.270  38.705  28.415  1.00  0.00     0.032 A 
ATOM      9  C   UNL     1     -45.898  38.475  28.487  1.00  0.00    -0.039 A 
ATOM     10  C   UNL     1     -48.102  37.669  27.982  1.00  0.00    -0.031 A 
ATOM     11  C   UNL     1     -45.351  37.269  28.037  1.00  0.00    -0.052 A 
ATOM     12  H   UNL     1     -45.235  39.234  28.893  1.00  0.00     0.064 H 
ATOM     13  C   UNL     1     -47.575  36.448  27.523  1.00  0.00    -0.016 A 
ATOM     14  H   UNL     1     -49.180  37.813  28.001  1.00  0.00     0.065 H 
ATOM     15  C   UNL     1     -46.178  36.249  27.545  1.00  0.00    -0.018 A 
ATOM     16  H   UNL     1     -44.274  37.128  28.090  1.00  0.00     0.063 H 
ATOM     17  C   UNL     1     -48.407  35.419  27.049  1.00  0.00    -0.051 A 
ATOM     18  C   UNL     1     -45.650  35.031  27.094  1.00  0.00    -0.054 A 
ATOM     19  H   UNL     1     -49.485  35.563  27.053  1.00  0.00     0.063 H 
ATOM     20  C   UNL     1     -46.489  34.022  26.616  1.00  0.00    -0.058 A 
ATOM     21  H   UNL     1     -44.576  34.856  27.112  1.00  0.00     0.063 H 
ATOM     22  H   UNL     1     -46.046  33.090  26.268  1.00  0.00     0.063 H 
BRANCH   8  23
ATOM     23  N   UNL     1     -47.821  39.865  28.975  1.00  0.00    -0.399 N 
ATOM     24  H   UNL     1     -48.591  40.255  28.441  1.00  0.00     0.156 HD
ATOM     25  H   UNL     1     -48.037  39.786  29.964  1.00  0.00     0.156 HD
ENDBRANCH   8  23
ENDBRANCH   4   7
ENDBRANCH   1   4
BRANCH   1  26
ATOM     26  C   UNL     1     -47.942  31.699  24.034  1.00  0.00    -0.010 C 
ATOM     27  C   UNL     1     -46.901  30.608  23.676  1.00  0.00    -0.024 C 
ATOM     28  C   UNL     1     -49.205  31.203  23.329  1.00  0.00     0.085 C 
ATOM     29  H   UNL     1     -47.607  32.655  23.610  1.00  0.00     0.033 H 
ATOM     30  C   UNL     1     -47.695  29.339  23.289  1.00  0.00     0.064 C 
ATOM     31  H   UNL     1     -46.175  30.442  24.479  1.00  0.00     0.029 H 
ATOM     32  H   UNL     1     -46.325  30.937  22.801  1.00  0.00     0.029 H 
ATOM     33  C   UNL     1     -49.174  29.686  23.532  1.00  0.00     0.101 C 
ATOM     34  H   UNL     1     -50.141  31.640  23.667  1.00  0.00     0.063 H 
ATOM     35  H   UNL     1     -47.546  29.150  22.217  1.00  0.00     0.056 H 
ATOM     36  H   UNL     1     -49.503  29.417  24.542  1.00  0.00     0.065 H 
BRANCH  28  37
ATOM     37  O   UNL     1     -49.095  31.502  21.931  1.00  0.00    -0.390 OA
ATOM     38  H   UNL     1     -48.713  32.402  21.877  1.00  0.00     0.211 HD
ENDBRANCH  28  37
BRANCH  30  39
ATOM     39  N   UNL     1     -47.253  28.145  23.994  1.00  0.00    -0.327 N 
ATOM     40  C   UNL     1     -46.040  27.514  23.841  1.00  0.00     0.007 A 
ATOM     41  C   UNL     1     -48.008  27.457  24.917  1.00  0.00     0.145 A 
ATOM     42  C   UNL     1     -46.011  26.427  24.689  1.00  0.00    -0.031 A 
ATOM     43  H   UNL     1     -45.292  27.881  23.152  1.00  0.00     0.082 H 
ATOM     44  C   UNL     1     -47.257  26.380  25.372  1.00  0.00     0.061 A 
ATOM     45  N   UNL     1     -49.254  27.771  25.307  1.00  0.00    -0.218 NA
ATOM     46  H   UNL     1     -45.185  25.739  24.806  1.00  0.00     0.065 H 
ATOM     47  C   UNL     1     -47.854  25.553  26.332  1.00  0.00     0.136 A 
ATOM     48  C   UNL     1     -49.719  26.913  26.230  1.00  0.00     0.120 A 
ATOM     49  N   UNL     1     -49.102  25.835  26.753  1.00  0.00    -0.219 NA
ATOM     50  H   UNL     1     -50.720  27.112  26.601  1.00  0.00     0.106 H 
BRANCH  47  51
ATOM     51  N   UNL     1     -47.241  24.430  26.871  1.00  0.00    -0.383 N 
ATOM     52  H   UNL     1     -47.703  24.156  27.731  1.00  0.00     0.158 HD
ATOM     53  H   UNL     1     -47.058  23.692  26.205  1.00  0.00     0.158 HD
ENDBRANCH  47  51
ENDBRANCH  30  39
BRANCH  33  54
ATOM     54  O   UNL     1     -50.043  29.058  22.588  1.00  0.00    -0.388 OA
ATOM     55  H   UNL     1     -50.450  28.295  23.037  1.00  0.00     0.211 HD
ENDBRANCH  33  54
ENDBRANCH   1  26
TORSDOF 8
ENDMDL
MODEL 3
REMARK VINA RESULT:      -9.8      1.821      9.719
REMARK SMILES Nc1ccc2ccc(CC[C@H]3C[C@@H](n4ccc5c(N)ncnc54)[C@H](O)[C@@H]3O)cc2c1
REMARK SMILES IDX 10 1 9 4 8 7 2 8 3 9 30 10 4 11 29 13 5 15 28 17 6 18 7 20
REMARK SMILES IDX 1 23 11 26 12 27 26 28 13 30 24 33 27 37 14 39 15 40 23 41
REMARK SMILES IDX 16 42 17 44 22 45 18 47 21 48 20 49 19 51 25 54
REMARK H PARENT 10 2 10 3 9 5 9 6 3 12 30 14 4 16 28 19 6 21 7 22 1 24 1 25
REMARK H PARENT 11 29 12 31 12 32 26 34 13 35 24 36 27 38 15 43 16 46 21 50
REMARK H PARENT 19 52 19 53 25 55
REMARK Flexibility Score: inf
ROOT
ATOM      1  C   UNL     1     -46.702  37.160  26.499  1.00  0.00    -0.044 C 
ATOM      2  H   UNL     1     -45.636  36.976  26.342  1.00  0.00     0.027 H 
ATOM      3  H   UNL     1     -47.200  36.862  25.565  1.00  0.00     0.027 H 
ENDROOT
BRANCH   1   4
ATOM      4  C   UNL     1     -46.976  38.662  26.676  1.00  0.00    -0.028 C 
ATOM      5  H   UNL     1     -47.684  38.807  27.501  1.00  0.00     0.032 H 
ATOM      6  H   UNL     1     -47.484  39.034  25.776  1.00  0.00     0.032 H 
BRANCH   4   7
ATOM      7  C   UNL     1     -45.749  39.517  26.875  1.00  0.00    -0.047 A 
ATOM      8  C   UNL     1     -41.995  40.985  29.653  1.00  0.00     0.032 A 
ATOM      9  C   UNL     1     -41.589  41.836  28.627  1.00  0.00    -0.039 A 
ATOM     10  C   UNL     1     -43.095  40.150  29.435  1.00  0.00    -0.031 A 
ATOM     11  C   UNL     1     -42.325  41.930  27.442  1.00  0.00    -0.052 A 
ATOM     12  H   UNL     1     -40.691  42.438  28.738  1.00  0.00     0.064 H 
ATOM     13  C   UNL     1     -43.853  40.229  28.253  1.00  0.00    -0.016 A 
ATOM     14  H   UNL     1     -43.369  39.426  30.199  1.00  0.00     0.065 H 
ATOM     15  C   UNL     1     -43.465  41.138  27.245  1.00  0.00    -0.018 A 
ATOM     16  H   UNL     1     -41.991  42.617  26.669  1.00  0.00     0.063 H 
ATOM     17  C   UNL     1     -44.984  39.420  28.048  1.00  0.00    -0.051 A 
ATOM     18  C   UNL     1     -44.215  41.214  26.063  1.00  0.00    -0.054 A 
ATOM     19  H   UNL     1     -45.270  38.703  28.815  1.00  0.00     0.063 H 
ATOM     20  C   UNL     1     -45.343  40.410  25.878  1.00  0.00    -0.058 A 
ATOM     21  H   UNL     1     -43.926  41.902  25.271  1.00  0.00     0.063 H 
ATOM     22  H   UNL     1     -45.906  40.499  24.951  1.00  0.00     0.063 H 
BRANCH   8  23
ATOM     23  N   UNL     1     -41.189  40.809  30.784  1.00  0.00    -0.399 N 
ATOM     24  H   UNL     1     -40.334  40.292  30.604  1.00  0.00     0.156 HD
ATOM     25  H   UNL     1     -41.022  41.660  31.311  1.00  0.00     0.156 HD
ENDBRANCH   8  23
ENDBRANCH   4   7
ENDBRANCH   1   4
BRANCH   1  26
ATOM     26  C   UNL     1     -47.256  36.257  27.621  1.00  0.00    -0.010 C 
ATOM     27  C   UNL     1     -48.022  35.055  27.015  1.00  0.00    -0.024 C 
ATOM     28  C   UNL     1     -46.205  35.578  28.499  1.00  0.00     0.085 C 
ATOM     29  H   UNL     1     -47.953  36.846  28.231  1.00  0.00     0.033 H 
ATOM     30  C   UNL     1     -47.087  33.829  27.115  1.00  0.00     0.064 C 
ATOM     31  H   UNL     1     -48.377  35.253  25.998  1.00  0.00     0.029 H 
ATOM     32  H   UNL     1     -48.917  34.859  27.621  1.00  0.00     0.029 H 
ATOM     33  C   UNL     1     -45.760  34.366  27.678  1.00  0.00     0.101 C 
ATOM     34  H   UNL     1     -45.364  36.198  28.800  1.00  0.00     0.063 H 
ATOM     35  H   UNL     1     -47.518  33.121  27.835  1.00  0.00     0.056 H 
ATOM     36  H   UNL     1     -45.062  34.661  26.886  1.00  0.00     0.065 H 
BRANCH  28  37
ATOM     37  O   UNL     1     -46.837  35.133  29.707  1.00  0.00    -0.390 OA
ATOM     38  H   UNL     1     -46.880  35.916  30.293  1.00  0.00     0.211 HD
ENDBRANCH  28  37
BRANCH  30  39
ATOM     39  N   UNL     1     -46.938  33.112  25.857  1.00  0.00    -0.327 N 
ATOM     40  C   UNL     1     -46.191  33.518  24.774  1.00  0.00     0.007 A 
ATOM     41  C   UNL     1     -47.549  31.914  25.561  1.00  0.00     0.145 A 
ATOM     42  C   UNL     1     -46.308  32.561  23.788  1.00  0.00    -0.031 A 
ATOM     43  H   UNL     1     -45.634  34.443  24.784  1.00  0.00     0.082 H 
ATOM     44  C   UNL     1     -47.171  31.542  24.277  1.00  0.00     0.061 A 
ATOM     45  N   UNL     1     -48.369  31.226  26.373  1.00  0.00    -0.218 NA
ATOM     46  H   UNL     1     -45.827  32.589  22.821  1.00  0.00     0.065 H 
ATOM     47  C   UNL     1     -47.689  30.334  23.790  1.00  0.00     0.136 A 
ATOM     48  C   UNL     1     -48.796  30.088  25.803  1.00  0.00     0.120 A 
ATOM     49  N   UNL     1     -48.512  29.613  24.575  1.00  0.00    -0.219 NA
ATOM     50  H   UNL     1     -49.457  29.474  26.407  1.00  0.00     0.106 H 
BRANCH  47  51
ATOM     51  N   UNL     1     -47.419  29.837  22.523  1.00  0.00    -0.383 N 
ATOM     52  H   UNL     1     -46.870  28.986  22.589  1.00  0.00     0.158 HD
ATOM     53  H   UNL     1     -48.218  29.807  21.906  1.00  0.00     0.158 HD
ENDBRANCH  47  51
ENDBRANCH  30  39
BRANCH  33  54
ATOM     54  O   UNL     1     -45.107  33.422  28.529  1.00  0.00    -0.388 OA
ATOM     55  H   UNL     1     -44.190  33.727  28.646  1.00  0.00     0.211 HD
ENDBRANCH  33  54
ENDBRANCH   1  26
TORSDOF 8
ENDMDL
MODEL 4
REMARK VINA RESULT:      -9.7      1.463      2.188
REMARK SMILES Nc1ccc2ccc(CC[C@H]3C[C@@H](n4ccc5c(N)ncnc54)[C@H](O)[C@@H]3O)cc2c1
REMARK SMILES IDX 10 1 9 4 8 7 2 8 3 9 30 10 4 11 29 13 5 15 28 17 6 18 7 20
REMARK SMILES IDX 1 23 11 26 12 27 26 28 13 30 24 33 27 37 14 39 15 40 23 41
REMARK SMILES IDX 16 42 17 44 22 45 18 47 21 48 20 49 19 51 25 54
REMARK H PARENT 10 2 10 3 9 5 9 6 3 12 30 14 4 16 28 19 6 21 7 22 1 24 1 25
REMARK H PARENT 11 29 12 31 12 32 26 34 13 35 24 36 27 38 15 43 16 46 21 50
REMARK H PARENT 19 52 19 53 25 55
REMARK Flexibility Score: inf
ROOT
ATOM      1  C   UNL     1     -45.539  36.290  27.378  1.00  0.00    -0.044 C 
ATOM      2  H   UNL     1     -44.846  36.714  26.645  1.00  0.00     0.027 H 
ATOM      3  H   UNL     1     -45.236  35.242  27.507  1.00  0.00     0.027 H 
ENDROOT
BRANCH   1   4
ATOM      4  C   UNL     1     -46.972  36.262  26.821  1.00  0.00    -0.028 C 
ATOM      5  H   UNL     1     -47.070  37.021  26.035  1.00  0.00     0.032 H 
ATOM      6  H   UNL     1     -47.663  36.566  27.619  1.00  0.00     0.032 H 
BRANCH   4   7
ATOM      7  C   UNL     1     -47.439  34.918  26.321  1.00  0.00    -0.047 A 
ATOM      8  C   UNL     1     -46.654  30.841  23.727  1.00  0.00     0.032 A 
ATOM      9  C   UNL     1     -47.914  30.378  24.103  1.00  0.00    -0.039 A 
ATOM     10  C   UNL     1     -46.205  32.058  24.247  1.00  0.00    -0.031 A 
ATOM     11  C   UNL     1     -48.755  31.161  24.900  1.00  0.00    -0.052 A 
ATOM     12  H   UNL     1     -48.258  29.400  23.778  1.00  0.00     0.064 H 
ATOM     13  C   UNL     1     -47.034  32.864  25.049  1.00  0.00    -0.016 A 
ATOM     14  H   UNL     1     -45.193  32.387  24.025  1.00  0.00     0.065 H 
ATOM     15  C   UNL     1     -48.331  32.411  25.373  1.00  0.00    -0.018 A 
ATOM     16  H   UNL     1     -49.739  30.778  25.159  1.00  0.00     0.063 H 
ATOM     17  C   UNL     1     -46.600  34.108  25.539  1.00  0.00    -0.051 A 
ATOM     18  C   UNL     1     -49.157  33.210  26.176  1.00  0.00    -0.054 A 
ATOM     19  H   UNL     1     -45.593  34.448  25.308  1.00  0.00     0.063 H 
ATOM     20  C   UNL     1     -48.715  34.448  26.648  1.00  0.00    -0.058 A 
ATOM     21  H   UNL     1     -50.156  32.872  26.445  1.00  0.00     0.063 H 
ATOM     22  H   UNL     1     -49.383  35.046  27.265  1.00  0.00     0.063 H 
BRANCH   8  23
ATOM     23  N   UNL     1     -45.775  30.004  23.030  1.00  0.00    -0.399 N 
ATOM     24  H   UNL     1     -46.174  29.595  22.191  1.00  0.00     0.156 HD
ATOM     25  H   UNL     1     -44.859  30.410  22.865  1.00  0.00     0.156 HD
ENDBRANCH   8  23
ENDBRANCH   4   7
ENDBRANCH   1   4
BRANCH   1  26
ATOM     26  C   UNL     1     -45.383  36.984  28.747  1.00  0.00    -0.010 C 
ATOM     27  C   UNL     1     -44.434  38.203  28.626  1.00  0.00    -0.024 C 
ATOM     28  C   UNL     1     -46.658  37.606  29.319  1.00  0.00     0.085 C 
ATOM     29  H   UNL     1     -44.946  36.268  29.454  1.00  0.00     0.033 H 
ATOM     30  C   UNL     1     -45.325  39.466  28.599  1.00  0.00     0.064 C 
ATOM     31  H   UNL     1     -43.758  38.125  27.768  1.00  0.00     0.029 H 
ATOM     32  H   UNL     1     -43.796  38.248  29.518  1.00  0.00     0.029 H 
ATOM     33  C   UNL     1     -46.774  38.950  28.597  1.00  0.00     0.101 C 
ATOM     34  H   UNL     1     -47.562  37.010  29.222  1.00  0.00     0.063 H 
ATOM     35  H   UNL     1     -45.151  40.033  29.523  1.00  0.00     0.056 H 
ATOM     36  H   UNL     1     -47.166  38.819  27.582  1.00  0.00     0.065 H 
BRANCH  28  37
ATOM     37  O   UNL     1     -46.465  37.831  30.723  1.00  0.00    -0.390 OA
ATOM     38  H   UNL     1     -45.584  38.247  30.810  1.00  0.00     0.211 HD
ENDBRANCH  28  37
BRANCH  30  39
ATOM     39  N   UNL     1     -45.023  40.361  27.491  1.00  0.00    -0.327 N 
ATOM     40  C   UNL     1     -45.838  40.620  26.412  1.00  0.00     0.007 A 
ATOM     41  C   UNL     1     -43.854  41.073  27.357  1.00  0.00     0.145 A 
ATOM     42  C   UNL     1     -45.191  41.522  25.593  1.00  0.00    -0.031 A 
ATOM     43  H   UNL     1     -46.807  40.154  26.308  1.00  0.00     0.082 H 
ATOM     44  C   UNL     1     -43.930  41.812  26.183  1.00  0.00     0.061 A 
ATOM     45  N   UNL     1     -42.817  41.055  28.211  1.00  0.00    -0.218 NA
ATOM     46  H   UNL     1     -45.581  41.929  24.671  1.00  0.00     0.065 H 
ATOM     47  C   UNL     1     -42.827  42.617  25.868  1.00  0.00     0.136 A 
ATOM     48  C   UNL     1     -41.825  41.866  27.810  1.00  0.00     0.120 A 
ATOM     49  N   UNL     1     -41.769  42.629  26.701  1.00  0.00    -0.219 NA
ATOM     50  H   UNL     1     -40.956  41.910  28.459  1.00  0.00     0.106 H 
BRANCH  47  51
ATOM     51  N   UNL     1     -42.745  43.398  24.724  1.00  0.00    -0.383 N 
ATOM     52  H   UNL     1     -43.027  44.350  24.928  1.00  0.00     0.158 HD
ATOM     53  H   UNL     1     -41.888  43.287  24.200  1.00  0.00     0.158 HD
ENDBRANCH  47  51
ENDBRANCH  30  39
BRANCH  33  54
ATOM     54  O   UNL     1     -47.659  39.808  29.318  1.00  0.00    -0.388 OA
ATOM     55  H   UNL     1     -48.521  39.779  28.864  1.00  0.00     0.211 HD
ENDBRANCH  33  54
ENDBRANCH   1  26
TORSDOF 8
ENDMDL
MODEL 5
REMARK VINA RESULT:      -9.3      1.704      2.608
REMARK SMILES Nc1ccc2ccc(CC[C@H]3C[C@@H](n4ccc5c(N)ncnc54)[C@H](O)[C@@H]3O)cc2c1
REMARK SMILES IDX 10 1 9 4 8 7 2 8 3 9 30 10 4 11 29 13 5 15 28 17 6 18 7 20
REMARK SMILES IDX 1 23 11 26 12 27 26 28 13 30 24 33 27 37 14 39 15 40 23 41
REMARK SMILES IDX 16 42 17 44 22 45 18 47 21 48 20 49 19 51 25 54
REMARK H PARENT 10 2 10 3 9 5 9 6 3 12 30 14 4 16 28 19 6 21 7 22 1 24 1 25
REMARK H PARENT 11 29 12 31 12 32 26 34 13 35 24 36 27 38 15 43 16 46 21 50
REMARK H PARENT 19 52 19 53 25 55
REMARK Flexibility Score: inf
ROOT
ATOM      1  C   UNL     1     -46.063  35.139  27.191  1.00  0.00    -0.044 C 
ATOM      2  H   UNL     1     -45.223  35.834  27.099  1.00  0.00     0.027 H 
ATOM      3  H   UNL     1     -45.618  34.153  27.385  1.00  0.00     0.027 H 
ENDROOT
BRANCH   1   4
ATOM      4  C   UNL     1     -46.820  35.020  25.859  1.00  0.00    -0.028 C 
ATOM      5  H   UNL     1     -46.262  35.547  25.075  1.00  0.00     0.032 H 
ATOM      6  H   UNL     1     -47.778  35.549  25.952  1.00  0.00     0.032 H 
BRANCH   4   7
ATOM      7  C   UNL     1     -47.136  33.610  25.426  1.00  0.00    -0.047 A 
ATOM      8  C   UNL     1     -46.065  29.636  22.776  1.00  0.00     0.032 A 
ATOM      9  C   UNL     1     -47.187  29.000  23.305  1.00  0.00    -0.039 A 
ATOM     10  C   UNL     1     -45.745  30.918  23.232  1.00  0.00    -0.031 A 
ATOM     11  C   UNL     1     -48.034  29.668  24.194  1.00  0.00    -0.052 A 
ATOM     12  H   UNL     1     -47.416  27.974  23.029  1.00  0.00     0.064 H 
ATOM     13  C   UNL     1     -46.583  31.610  24.124  1.00  0.00    -0.016 A 
ATOM     14  H   UNL     1     -44.827  31.388  22.886  1.00  0.00     0.065 H 
ATOM     15  C   UNL     1     -47.749  30.977  24.606  1.00  0.00    -0.018 A 
ATOM     16  H   UNL     1     -48.912  29.149  24.573  1.00  0.00     0.063 H 
ATOM     17  C   UNL     1     -46.285  32.915  24.552  1.00  0.00    -0.051 A 
ATOM     18  C   UNL     1     -48.584  31.662  25.500  1.00  0.00    -0.054 A 
ATOM     19  H   UNL     1     -45.376  33.396  24.198  1.00  0.00     0.063 H 
ATOM     20  C   UNL     1     -48.279  32.963  25.908  1.00  0.00    -0.058 A 
ATOM     21  H   UNL     1     -49.481  31.187  25.890  1.00  0.00     0.063 H 
ATOM     22  H   UNL     1     -48.951  33.469  26.599  1.00  0.00     0.063 H 
BRANCH   8  23
ATOM     23  N   UNL     1     -45.159  28.922  21.982  1.00  0.00    -0.399 N 
ATOM     24  H   UNL     1     -44.952  27.990  22.328  1.00  0.00     0.156 HD
ATOM     25  H   UNL     1     -45.383  28.925  20.992  1.00  0.00     0.156 HD
ENDBRANCH   8  23
ENDBRANCH   4   7
ENDBRANCH   1   4
BRANCH   1  26
ATOM     26  C   UNL     1     -46.938  35.496  28.411  1.00  0.00    -0.010 C 
ATOM     27  C   UNL     1     -46.087  36.206  29.493  1.00  0.00    -0.024 C 
ATOM     28  C   UNL     1     -48.057  36.504  28.147  1.00  0.00     0.085 C 
ATOM     29  H   UNL     1     -47.341  34.567  28.835  1.00  0.00     0.033 H 
ATOM     30  C   UNL     1     -46.406  37.715  29.398  1.00  0.00     0.064 C 
ATOM     31  H   UNL     1     -45.020  35.978  29.405  1.00  0.00     0.029 H 
ATOM     32  H   UNL     1     -46.398  35.848  30.484  1.00  0.00     0.029 H 
ATOM     33  C   UNL     1     -47.353  37.863  28.194  1.00  0.00     0.101 C 
ATOM     34  H   UNL     1     -48.614  36.366  27.224  1.00  0.00     0.063 H 
ATOM     35  H   UNL     1     -46.941  38.015  30.309  1.00  0.00     0.056 H 
ATOM     36  H   UNL     1     -46.811  38.058  27.262  1.00  0.00     0.065 H 
BRANCH  28  37
ATOM     37  O   UNL     1     -49.009  36.420  29.216  1.00  0.00    -0.390 OA
ATOM     38  H   UNL     1     -48.517  36.073  29.988  1.00  0.00     0.211 HD
ENDBRANCH  28  37
BRANCH  30  39
ATOM     39  N   UNL     1     -45.218  38.552  29.311  1.00  0.00    -0.327 N 
ATOM     40  C   UNL     1     -44.178  38.582  30.213  1.00  0.00     0.007 A 
ATOM     41  C   UNL     1     -44.971  39.459  28.305  1.00  0.00     0.145 A 
ATOM     42  C   UNL     1     -43.250  39.500  29.767  1.00  0.00    -0.031 A 
ATOM     43  H   UNL     1     -44.171  37.954  31.092  1.00  0.00     0.082 H 
ATOM     44  C   UNL     1     -43.747  40.064  28.561  1.00  0.00     0.061 A 
ATOM     45  N   UNL     1     -45.776  39.715  27.261  1.00  0.00    -0.218 NA
ATOM     46  H   UNL     1     -42.316  39.741  30.255  1.00  0.00     0.065 H 
ATOM     47  C   UNL     1     -43.311  41.023  27.637  1.00  0.00     0.136 A 
ATOM     48  C   UNL     1     -45.253  40.644  26.444  1.00  0.00     0.120 A 
ATOM     49  N   UNL     1     -44.087  41.307  26.574  1.00  0.00    -0.219 NA
ATOM     50  H   UNL     1     -45.846  40.895  25.570  1.00  0.00     0.106 H 
BRANCH  47  51
ATOM     51  N   UNL     1     -42.121  41.727  27.762  1.00  0.00    -0.383 N 
ATOM     52  H   UNL     1     -42.304  42.670  28.089  1.00  0.00     0.158 HD
ATOM     53  H   UNL     1     -41.384  41.224  28.235  1.00  0.00     0.158 HD
ENDBRANCH  47  51
ENDBRANCH  30  39
BRANCH  33  54
ATOM     54  O   UNL     1     -48.319  38.898  28.384  1.00  0.00    -0.388 OA
ATOM     55  H   UNL     1     -49.066  38.507  28.872  1.00  0.00     0.211 HD
ENDBRANCH  33  54
ENDBRANCH   1  26
TORSDOF 8
ENDMDL
MODEL 6
REMARK VINA RESULT:      -9.3      4.079     11.380
REMARK SMILES Nc1ccc2ccc(CC[C@H]3C[C@@H](n4ccc5c(N)ncnc54)[C@H](O)[C@@H]3O)cc2c1
REMARK SMILES IDX 10 1 9 4 8 7 2 8 3 9 30 10 4 11 29 13 5 15 28 17 6 18 7 20
REMARK SMILES IDX 1 23 11 26 12 27 26 28 13 30 24 33 27 37 14 39 15 40 23 41
REMARK SMILES IDX 16 42 17 44 22 45 18 47 21 48 20 49 19 51 25 54
REMARK H PARENT 10 2 10 3 9 5 9 6 3 12 30 14 4 16 28 19 6 21 7 22 1 24 1 25
REMARK H PARENT 11 29 12 31 12 32 26 34 13 35 24 36 27 38 15 43 16 46 21 50
REMARK H PARENT 19 52 19 53 25 55
REMARK Flexibility Score: inf
ROOT
ATOM      1  C   UNL     1     -47.204  31.995  24.250  1.00  0.00    -0.044 C 
ATOM      2  H   UNL     1     -47.846  32.656  23.661  1.00  0.00     0.027 H 
ATOM      3  H   UNL     1     -47.879  31.422  24.901  1.00  0.00     0.027 H 
ENDROOT
BRANCH   1   4
ATOM      4  C   UNL     1     -46.291  32.809  25.182  1.00  0.00    -0.028 C 
ATOM      5  H   UNL     1     -45.422  33.168  24.616  1.00  0.00     0.032 H 
ATOM      6  H   UNL     1     -45.890  32.138  25.953  1.00  0.00     0.032 H 
BRANCH   4   7
ATOM      7  C   UNL     1     -46.965  33.953  25.899  1.00  0.00    -0.047 A 
ATOM      8  C   UNL     1     -46.737  38.342  28.054  1.00  0.00     0.032 A 
ATOM      9  C   UNL     1     -48.106  38.274  28.303  1.00  0.00    -0.039 A 
ATOM     10  C   UNL     1     -46.134  37.307  27.333  1.00  0.00    -0.031 A 
ATOM     11  C   UNL     1     -48.845  37.147  27.930  1.00  0.00    -0.052 A 
ATOM     12  H   UNL     1     -48.616  39.099  28.792  1.00  0.00     0.064 H 
ATOM     13  C   UNL     1     -46.857  36.162  26.950  1.00  0.00    -0.016 A 
ATOM     14  H   UNL     1     -45.084  37.392  27.064  1.00  0.00     0.065 H 
ATOM     15  C   UNL     1     -48.231  36.080  27.260  1.00  0.00    -0.018 A 
ATOM     16  H   UNL     1     -49.909  37.118  28.156  1.00  0.00     0.063 H 
ATOM     17  C   UNL     1     -46.244  35.102  26.261  1.00  0.00    -0.051 A 
ATOM     18  C   UNL     1     -48.955  34.942  26.875  1.00  0.00    -0.054 A 
ATOM     19  H   UNL     1     -45.190  35.175  26.002  1.00  0.00     0.063 H 
ATOM     20  C   UNL     1     -48.329  33.892  26.198  1.00  0.00    -0.058 A 
ATOM     21  H   UNL     1     -50.017  34.864  27.096  1.00  0.00     0.063 H 
ATOM     22  H   UNL     1     -48.919  33.021  25.918  1.00  0.00     0.063 H 
BRANCH   8  23
ATOM     23  N   UNL     1     -46.029  39.520  28.323  1.00  0.00    -0.399 N 
ATOM     24  H   UNL     1     -46.553  40.368  28.127  1.00  0.00     0.156 HD
ATOM     25  H   UNL     1     -45.589  39.540  29.237  1.00  0.00     0.156 HD
ENDBRANCH   8  23
ENDBRANCH   4   7
ENDBRANCH   1   4
BRANCH   1  26
ATOM     26  C   UNL     1     -46.475  30.983  23.342  1.00  0.00    -0.010 C 
ATOM     27  C   UNL     1     -46.724  29.537  23.840  1.00  0.00    -0.024 C 
ATOM     28  C   UNL     1     -46.963  30.928  21.893  1.00  0.00     0.085 C 
ATOM     29  H   UNL     1     -45.398  31.188  23.384  1.00  0.00     0.033 H 
ATOM     30  C   UNL     1     -47.787  28.916  22.907  1.00  0.00     0.064 C 
ATOM     31  H   UNL     1     -46.995  29.500  24.900  1.00  0.00     0.029 H 
ATOM     32  H   UNL     1     -45.795  28.960  23.739  1.00  0.00     0.029 H 
ATOM     33  C   UNL     1     -48.213  30.047  21.954  1.00  0.00     0.101 C 
ATOM     34  H   UNL     1     -47.163  31.887  21.422  1.00  0.00     0.063 H 
ATOM     35  H   UNL     1     -47.312  28.118  22.321  1.00  0.00     0.056 H 
ATOM     36  H   UNL     1     -49.073  30.609  22.334  1.00  0.00     0.065 H 
BRANCH  28  37
ATOM     37  O   UNL     1     -45.959  30.283  21.098  1.00  0.00    -0.390 OA
ATOM     38  H   UNL     1     -46.400  30.028  20.262  1.00  0.00     0.211 HD
ENDBRANCH  28  37
BRANCH  30  39
ATOM     39  N   UNL     1     -48.900  28.309  23.623  1.00  0.00    -0.327 N 
ATOM     40  C   UNL     1     -50.233  28.607  23.455  1.00  0.00     0.007 A 
ATOM     41  C   UNL     1     -48.771  27.347  24.599  1.00  0.00     0.145 A 
ATOM     42  C   UNL     1     -50.962  27.813  24.315  1.00  0.00    -0.031 A 
ATOM     43  H   UNL     1     -50.564  29.349  22.743  1.00  0.00     0.082 H 
ATOM     44  C   UNL     1     -50.043  27.014  25.047  1.00  0.00     0.061 A 
ATOM     45  N   UNL     1     -47.615  26.823  25.041  1.00  0.00    -0.218 NA
ATOM     46  H   UNL     1     -52.039  27.807  24.409  1.00  0.00     0.065 H 
ATOM     47  C   UNL     1     -50.125  26.035  26.048  1.00  0.00     0.136 A 
ATOM     48  C   UNL     1     -47.819  25.896  25.991  1.00  0.00     0.120 A 
ATOM     49  N   UNL     1     -48.989  25.483  26.516  1.00  0.00    -0.219 NA
ATOM     50  H   UNL     1     -46.928  25.421  26.389  1.00  0.00     0.106 H 
BRANCH  47  51
ATOM     51  N   UNL     1     -51.319  25.608  26.610  1.00  0.00    -0.383 N 
ATOM     52  H   UNL     1     -51.632  24.754  26.162  1.00  0.00     0.158 HD
ATOM     53  H   UNL     1     -51.333  25.615  27.620  1.00  0.00     0.158 HD
ENDBRANCH  47  51
ENDBRANCH  30  39
BRANCH  33  54
ATOM     54  O   UNL     1     -48.526  29.568  20.645  1.00  0.00    -0.388 OA
ATOM     55  H   UNL     1     -49.346  29.047  20.718  1.00  0.00     0.211 HD
ENDBRANCH  33  54
ENDBRANCH   1  26
TORSDOF 8
ENDMDL
MODEL 7
REMARK VINA RESULT:      -9.2      2.521      9.810
REMARK SMILES Nc1ccc2ccc(CC[C@H]3C[C@@H](n4ccc5c(N)ncnc54)[C@H](O)[C@@H]3O)cc2c1
REMARK SMILES IDX 10 1 9 4 8 7 2 8 3 9 30 10 4 11 29 13 5 15 28 17 6 18 7 20
REMARK SMILES IDX 1 23 11 26 12 27 26 28 13 30 24 33 27 37 14 39 15 40 23 41
REMARK SMILES IDX 16 42 17 44 22 45 18 47 21 48 20 49 19 51 25 54
REMARK H PARENT 10 2 10 3 9 5 9 6 3 12 30 14 4 16 28 19 6 21 7 22 1 24 1 25
REMARK H PARENT 11 29 12 31 12 32 26 34 13 35 24 36 27 38 15 43 16 46 21 50
REMARK H PARENT 19 52 19 53 25 55
REMARK Flexibility Score: inf
ROOT
ATOM      1  C   UNL     1     -46.773  37.168  26.589  1.00  0.00    -0.044 C 
ATOM      2  H   UNL     1     -45.710  37.003  26.392  1.00  0.00     0.027 H 
ATOM      3  H   UNL     1     -47.297  36.883  25.666  1.00  0.00     0.027 H 
ENDROOT
BRANCH   1   4
ATOM      4  C   UNL     1     -47.062  38.662  26.810  1.00  0.00    -0.028 C 
ATOM      5  H   UNL     1     -47.707  38.781  27.689  1.00  0.00     0.032 H 
ATOM      6  H   UNL     1     -47.645  39.035  25.958  1.00  0.00     0.032 H 
BRANCH   4   7
ATOM      7  C   UNL     1     -45.841  39.540  26.926  1.00  0.00    -0.047 A 
ATOM      8  C   UNL     1     -42.982  43.101  25.163  1.00  0.00     0.032 A 
ATOM      9  C   UNL     1     -42.145  42.955  26.268  1.00  0.00    -0.039 A 
ATOM     10  C   UNL     1     -44.145  42.327  25.096  1.00  0.00    -0.031 A 
ATOM     11  C   UNL     1     -42.406  41.983  27.239  1.00  0.00    -0.052 A 
ATOM     12  H   UNL     1     -41.277  43.597  26.386  1.00  0.00     0.064 H 
ATOM     13  C   UNL     1     -44.427  41.342  26.060  1.00  0.00    -0.016 A 
ATOM     14  H   UNL     1     -44.844  42.493  24.280  1.00  0.00     0.065 H 
ATOM     15  C   UNL     1     -43.540  41.164  27.143  1.00  0.00    -0.018 A 
ATOM     16  H   UNL     1     -41.723  41.883  28.079  1.00  0.00     0.063 H 
ATOM     17  C   UNL     1     -45.574  40.535  25.973  1.00  0.00    -0.051 A 
ATOM     18  C   UNL     1     -43.822  40.187  28.108  1.00  0.00    -0.054 A 
ATOM     19  H   UNL     1     -46.270  40.688  25.151  1.00  0.00     0.063 H 
ATOM     20  C   UNL     1     -44.961  39.385  28.003  1.00  0.00    -0.058 A 
ATOM     21  H   UNL     1     -43.155  40.041  28.955  1.00  0.00     0.063 H 
ATOM     22  H   UNL     1     -45.148  38.632  28.766  1.00  0.00     0.063 H 
BRANCH   8  23
ATOM     23  N   UNL     1     -42.781  44.151  24.260  1.00  0.00    -0.399 N 
ATOM     24  H   UNL     1     -42.198  44.900  24.622  1.00  0.00     0.156 HD
ATOM     25  H   UNL     1     -42.494  43.853  23.333  1.00  0.00     0.156 HD
ENDBRANCH   8  23
ENDBRANCH   4   7
ENDBRANCH   1   4
BRANCH   1  26
ATOM     26  C   UNL     1     -47.276  36.232  27.708  1.00  0.00    -0.010 C 
ATOM     27  C   UNL     1     -48.031  35.024  27.099  1.00  0.00    -0.024 C 
ATOM     28  C   UNL     1     -46.186  35.561  28.545  1.00  0.00     0.085 C 
ATOM     29  H   UNL     1     -47.970  36.793  28.347  1.00  0.00     0.033 H 
ATOM     30  C   UNL     1     -47.065  33.818  27.151  1.00  0.00     0.064 C 
ATOM     31  H   UNL     1     -48.417  35.232  26.096  1.00  0.00     0.029 H 
ATOM     32  H   UNL     1     -48.904  34.796  27.725  1.00  0.00     0.029 H 
ATOM     33  C   UNL     1     -45.736  34.375  27.689  1.00  0.00     0.101 C 
ATOM     34  H   UNL     1     -45.352  36.195  28.835  1.00  0.00     0.063 H 
ATOM     35  H   UNL     1     -47.461  33.087  27.869  1.00  0.00     0.056 H 
ATOM     36  H   UNL     1     -45.067  34.701  26.885  1.00  0.00     0.065 H 
BRANCH  28  37
ATOM     37  O   UNL     1     -46.776  35.080  29.760  1.00  0.00    -0.390 OA
ATOM     38  H   UNL     1     -47.744  35.176  29.647  1.00  0.00     0.211 HD
ENDBRANCH  28  37
BRANCH  30  39
ATOM     39  N   UNL     1     -46.934  33.128  25.876  1.00  0.00    -0.327 N 
ATOM     40  C   UNL     1     -46.203  33.558  24.792  1.00  0.00     0.007 A 
ATOM     41  C   UNL     1     -47.547  31.936  25.564  1.00  0.00     0.145 A 
ATOM     42  C   UNL     1     -46.333  32.622  23.787  1.00  0.00    -0.031 A 
ATOM     43  H   UNL     1     -45.646  34.484  24.813  1.00  0.00     0.082 H 
ATOM     44  C   UNL     1     -47.188  31.592  24.267  1.00  0.00     0.061 A 
ATOM     45  N   UNL     1     -48.355  31.230  26.372  1.00  0.00    -0.218 NA
ATOM     46  H   UNL     1     -45.866  32.672  22.814  1.00  0.00     0.065 H 
ATOM     47  C   UNL     1     -47.711  30.394  23.762  1.00  0.00     0.136 A 
ATOM     48  C   UNL     1     -48.789  30.104  25.784  1.00  0.00     0.120 A 
ATOM     49  N   UNL     1     -48.523  29.655  24.542  1.00  0.00    -0.219 NA
ATOM     50  H   UNL     1     -49.441  29.476  26.385  1.00  0.00     0.106 H 
BRANCH  47  51
ATOM     51  N   UNL     1     -47.460  29.924  22.480  1.00  0.00    -0.383 N 
ATOM     52  H   UNL     1     -46.868  29.101  22.519  1.00  0.00     0.158 HD
ATOM     53  H   UNL     1     -48.276  29.861  21.889  1.00  0.00     0.158 HD
ENDBRANCH  47  51
ENDBRANCH  30  39
BRANCH  33  54
ATOM     54  O   UNL     1     -45.040  33.432  28.505  1.00  0.00    -0.388 OA
ATOM     55  H   UNL     1     -45.614  32.650  28.594  1.00  0.00     0.211 HD
ENDBRANCH  33  54
ENDBRANCH   1  26
TORSDOF 8
ENDMDL
