MODEL 1
REMARK VINA RESULT:     -10.1      0.000      0.000
REMARK SMILES Nc1ncnc2c1ccn2[C@@H]1O[C@H](COc2ccc3ccc(N4CCOCC4)nc3c2)[C@@H](O)[C@H]1O
REMARK SMILES IDX 14 1 13 4 11 5 12 6 34 7 32 9 10 13 2 14 3 15 7 16 4 17 6 18
REMARK SMILES IDX 8 19 5 20 9 22 1 25 35 28 33 30 15 32 16 33 17 34 31 35
REMARK SMILES IDX 18 36 30 38 19 40 29 42 20 43 22 44 21 45 23 48 24 49 28 50
REMARK SMILES IDX 25 51 27 54 26 57
REMARK H PARENT 14 2 14 3 11 8 34 10 13 11 32 12 4 21 8 23 9 24 1 26 1 27
REMARK H PARENT 35 29 33 31 17 37 31 39 18 41 20 46 21 47 24 52 24 53 28 55
REMARK H PARENT 28 56 25 58 25 59 27 60 27 61
REMARK Flexibility Score: inf
ROOT
ATOM      1  C   UNL     1     -45.969  35.241  27.205  1.00  0.00     0.117 C 
ATOM      2  H   UNL     1     -45.861  35.868  26.313  1.00  0.00     0.073 H 
ATOM      3  H   UNL     1     -45.170  34.490  27.150  1.00  0.00     0.073 H 
ENDROOT
BRANCH   1   4
ATOM      4  C   UNL     1     -45.822  36.026  28.511  1.00  0.00     0.123 C 
ATOM      5  C   UNL     1     -44.878  38.022  29.269  1.00  0.00     0.164 C 
ATOM      6  O   UNL     1     -44.619  36.822  28.500  1.00  0.00    -0.345 OA
ATOM      7  C   UNL     1     -46.348  37.984  29.715  1.00  0.00     0.128 C 
ATOM      8  H   UNL     1     -44.185  38.024  30.118  1.00  0.00     0.088 H 
ATOM      9  C   UNL     1     -46.957  37.018  28.713  1.00  0.00     0.114 C 
ATOM     10  H   UNL     1     -46.863  38.949  29.722  1.00  0.00     0.068 H 
ATOM     11  H   UNL     1     -45.745  35.335  29.359  1.00  0.00     0.067 H 
ATOM     12  H   UNL     1     -47.188  37.541  27.778  1.00  0.00     0.066 H 
BRANCH   5  13
ATOM     13  N   UNL     1     -44.570  39.197  28.462  1.00  0.00    -0.303 N 
ATOM     14  C   UNL     1     -42.590  42.090  27.982  1.00  0.00     0.136 A 
ATOM     15  N   UNL     1     -41.772  42.044  29.052  1.00  0.00    -0.219 NA
ATOM     16  C   UNL     1     -43.548  41.080  27.821  1.00  0.00     0.061 A 
ATOM     17  C   UNL     1     -41.904  41.019  29.915  1.00  0.00     0.120 A 
ATOM     18  C   UNL     1     -43.575  40.087  28.790  1.00  0.00     0.147 A 
ATOM     19  C   UNL     1     -44.568  40.764  26.881  1.00  0.00    -0.031 A 
ATOM     20  N   UNL     1     -42.783  40.000  29.872  1.00  0.00    -0.218 NA
ATOM     21  H   UNL     1     -41.215  41.020  30.755  1.00  0.00     0.106 H 
ATOM     22  C   UNL     1     -45.183  39.603  27.302  1.00  0.00     0.009 A 
ATOM     23  H   UNL     1     -44.817  41.320  25.986  1.00  0.00     0.065 H 
ATOM     24  H   UNL     1     -45.988  39.029  26.858  1.00  0.00     0.082 H 
BRANCH  14  25
ATOM     25  N   UNL     1     -42.441  43.156  27.108  1.00  0.00    -0.383 N 
ATOM     26  H   UNL     1     -41.752  42.947  26.395  1.00  0.00     0.158 HD
ATOM     27  H   UNL     1     -42.382  44.065  27.543  1.00  0.00     0.158 HD
ENDBRANCH  14  25
ENDBRANCH   5  13
BRANCH   7  28
ATOM     28  O   UNL     1     -46.494  37.417  31.034  1.00  0.00    -0.386 OA
ATOM     29  H   UNL     1     -46.735  36.479  30.908  1.00  0.00     0.211 HD
ENDBRANCH   7  28
BRANCH   9  30
ATOM     30  O   UNL     1     -48.138  36.404  29.208  1.00  0.00    -0.387 OA
ATOM     31  H   UNL     1     -47.856  35.889  29.993  1.00  0.00     0.211 HD
ENDBRANCH   9  30
ENDBRANCH   1   4
BRANCH   1  32
ATOM     32  O   UNL     1     -47.193  34.499  27.176  1.00  0.00    -0.491 OA
BRANCH  32  33
ATOM     33  C   UNL     1     -47.360  33.545  26.210  1.00  0.00     0.121 A 
ATOM     34  C   UNL     1     -46.277  33.412  25.341  1.00  0.00    -0.019 A 
ATOM     35  C   UNL     1     -48.477  32.723  26.038  1.00  0.00     0.007 A 
ATOM     36  C   UNL     1     -46.313  32.472  24.313  1.00  0.00    -0.049 A 
ATOM     37  H   UNL     1     -45.403  34.044  25.468  1.00  0.00     0.066 H 
ATOM     38  C   UNL     1     -48.537  31.775  25.022  1.00  0.00     0.076 A 
ATOM     39  H   UNL     1     -49.339  32.789  26.694  1.00  0.00     0.069 H 
ATOM     40  C   UNL     1     -47.439  31.652  24.152  1.00  0.00     0.001 A 
ATOM     41  H   UNL     1     -45.459  32.383  23.646  1.00  0.00     0.063 H 
ATOM     42  N   UNL     1     -49.636  31.008  24.908  1.00  0.00    -0.231 NA
ATOM     43  C   UNL     1     -47.517  30.697  23.138  1.00  0.00    -0.049 A 
ATOM     44  C   UNL     1     -49.706  30.081  23.929  1.00  0.00     0.129 A 
ATOM     45  C   UNL     1     -48.659  29.910  23.027  1.00  0.00    -0.019 A 
ATOM     46  H   UNL     1     -46.704  30.564  22.430  1.00  0.00     0.063 H 
ATOM     47  H   UNL     1     -48.737  29.179  22.228  1.00  0.00     0.066 H 
BRANCH  44  48
ATOM     48  N   UNL     1     -50.852  29.269  23.809  1.00  0.00    -0.352 N 
ATOM     49  C   UNL     1     -50.836  28.064  24.674  1.00  0.00     0.043 C 
ATOM     50  C   UNL     1     -51.144  28.963  22.386  1.00  0.00     0.043 C 
ATOM     51  C   UNL     1     -50.355  26.837  23.888  1.00  0.00     0.064 C 
ATOM     52  H   UNL     1     -50.251  28.202  25.592  1.00  0.00     0.052 H 
ATOM     53  H   UNL     1     -51.867  27.892  25.002  1.00  0.00     0.052 H 
ATOM     54  C   UNL     1     -51.925  27.645  22.261  1.00  0.00     0.064 C 
ATOM     55  H   UNL     1     -50.212  28.861  21.815  1.00  0.00     0.052 H 
ATOM     56  H   UNL     1     -51.734  29.777  21.950  1.00  0.00     0.052 H 
ATOM     57  O   UNL     1     -51.204  26.512  22.770  1.00  0.00    -0.378 OA
ATOM     58  H   UNL     1     -49.341  26.989  23.501  1.00  0.00     0.059 H 
ATOM     59  H   UNL     1     -50.328  25.958  24.540  1.00  0.00     0.059 H 
ATOM     60  H   UNL     1     -52.155  27.442  21.211  1.00  0.00     0.059 H 
ATOM     61  H   UNL     1     -52.880  27.707  22.797  1.00  0.00     0.059 H 
ENDBRANCH  44  48
ENDBRANCH  32  33
ENDBRANCH   1  32
TORSDOF 8
ENDMDL
MODEL 2
REMARK VINA RESULT:     -10.1      2.066      2.749
REMARK SMILES Nc1ncnc2c1ccn2[C@@H]1O[C@H](COc2ccc3ccc(N4CCOCC4)nc3c2)[C@@H](O)[C@H]1O
REMARK SMILES IDX 14 1 13 4 11 5 12 6 34 7 32 9 10 13 2 14 3 15 7 16 4 17 6 18
REMARK SMILES IDX 8 19 5 20 9 22 1 25 35 28 33 30 15 32 16 33 17 34 31 35
REMARK SMILES IDX 18 36 30 38 19 40 29 42 20 43 22 44 21 45 23 48 24 49 28 50
REMARK SMILES IDX 25 51 27 54 26 57
REMARK H PARENT 14 2 14 3 11 8 34 10 13 11 32 12 4 21 8 23 9 24 1 26 1 27
REMARK H PARENT 35 29 33 31 17 37 31 39 18 41 20 46 21 47 24 52 24 53 28 55
REMARK H PARENT 28 56 25 58 25 59 27 60 27 61
REMARK Flexibility Score: inf
ROOT
ATOM      1  C   UNL     1     -45.300  35.522  27.584  1.00  0.00     0.117 C 
ATOM      2  H   UNL     1     -44.326  35.474  27.086  1.00  0.00     0.073 H 
ATOM      3  H   UNL     1     -45.467  34.534  28.030  1.00  0.00     0.073 H 
ENDROOT
BRANCH   1   4
ATOM      4  C   UNL     1     -45.357  36.580  28.689  1.00  0.00     0.123 C 
ATOM      5  C   UNL     1     -44.979  38.868  28.957  1.00  0.00     0.164 C 
ATOM      6  O   UNL     1     -44.414  37.641  28.434  1.00  0.00    -0.345 OA
ATOM      7  C   UNL     1     -46.379  38.544  29.500  1.00  0.00     0.128 C 
ATOM      8  H   UNL     1     -44.303  39.234  29.738  1.00  0.00     0.088 H 
ATOM      9  C   UNL     1     -46.716  37.260  28.760  1.00  0.00     0.114 C 
ATOM     10  H   UNL     1     -47.135  39.319  29.344  1.00  0.00     0.068 H 
ATOM     11  H   UNL     1     -45.088  36.132  29.653  1.00  0.00     0.067 H 
ATOM     12  H   UNL     1     -47.089  37.491  27.756  1.00  0.00     0.066 H 
BRANCH   5  13
ATOM     13  N   UNL     1     -45.008  39.880  27.907  1.00  0.00    -0.303 N 
ATOM     14  C   UNL     1     -43.398  42.573  26.271  1.00  0.00     0.136 A 
ATOM     15  N   UNL     1     -42.249  42.672  26.969  1.00  0.00    -0.219 NA
ATOM     16  C   UNL     1     -44.327  41.589  26.636  1.00  0.00     0.061 A 
ATOM     17  C   UNL     1     -42.040  41.811  27.983  1.00  0.00     0.120 A 
ATOM     18  C   UNL     1     -43.982  40.772  27.703  1.00  0.00     0.147 A 
ATOM     19  C   UNL     1     -45.609  41.164  26.190  1.00  0.00    -0.031 A 
ATOM     20  N   UNL     1     -42.852  40.834  28.429  1.00  0.00    -0.218 NA
ATOM     21  H   UNL     1     -41.095  41.923  28.508  1.00  0.00     0.106 H 
ATOM     22  C   UNL     1     -46.005  40.114  26.992  1.00  0.00     0.009 A 
ATOM     23  H   UNL     1     -46.175  41.573  25.364  1.00  0.00     0.065 H 
ATOM     24  H   UNL     1     -46.903  39.506  26.969  1.00  0.00     0.082 H 
BRANCH  14  25
ATOM     25  N   UNL     1     -43.597  43.474  25.236  1.00  0.00    -0.383 N 
ATOM     26  H   UNL     1     -44.288  43.127  24.582  1.00  0.00     0.158 HD
ATOM     27  H   UNL     1     -42.757  43.869  24.841  1.00  0.00     0.158 HD
ENDBRANCH  14  25
ENDBRANCH   5  13
BRANCH   7  28
ATOM     28  O   UNL     1     -46.353  38.257  30.913  1.00  0.00    -0.386 OA
ATOM     29  H   UNL     1     -47.012  37.552  31.066  1.00  0.00     0.211 HD
ENDBRANCH   7  28
BRANCH   9  30
ATOM     30  O   UNL     1     -47.682  36.481  29.449  1.00  0.00    -0.387 OA
ATOM     31  H   UNL     1     -47.700  36.835  30.364  1.00  0.00     0.211 HD
ENDBRANCH   9  30
ENDBRANCH   1   4
BRANCH   1  32
ATOM     32  O   UNL     1     -46.361  35.697  26.638  1.00  0.00    -0.491 OA
BRANCH  32  33
ATOM     33  C   UNL     1     -47.023  34.591  26.182  1.00  0.00     0.121 A 
ATOM     34  C   UNL     1     -48.340  34.484  26.629  1.00  0.00    -0.019 A 
ATOM     35  C   UNL     1     -46.510  33.607  25.333  1.00  0.00     0.007 A 
ATOM     36  C   UNL     1     -49.131  33.407  26.235  1.00  0.00    -0.049 A 
ATOM     37  H   UNL     1     -48.749  35.246  27.287  1.00  0.00     0.066 H 
ATOM     38  C   UNL     1     -47.279  32.523  24.922  1.00  0.00     0.076 A 
ATOM     39  H   UNL     1     -45.493  33.653  24.956  1.00  0.00     0.069 H 
ATOM     40  C   UNL     1     -48.605  32.427  25.381  1.00  0.00     0.001 A 
ATOM     41  H   UNL     1     -50.154  33.341  26.595  1.00  0.00     0.063 H 
ATOM     42  N   UNL     1     -46.733  31.609  24.100  1.00  0.00    -0.231 NA
ATOM     43  C   UNL     1     -49.360  31.332  24.961  1.00  0.00    -0.049 A 
ATOM     44  C   UNL     1     -47.469  30.554  23.690  1.00  0.00     0.129 A 
ATOM     45  C   UNL     1     -48.787  30.391  24.111  1.00  0.00    -0.019 A 
ATOM     46  H   UNL     1     -50.387  31.199  25.291  1.00  0.00     0.063 H 
ATOM     47  H   UNL     1     -49.360  29.525  23.796  1.00  0.00     0.066 H 
BRANCH  44  48
ATOM     48  N   UNL     1     -46.905  29.597  22.821  1.00  0.00    -0.352 N 
ATOM     49  C   UNL     1     -47.310  28.200  23.111  1.00  0.00     0.043 C 
ATOM     50  C   UNL     1     -45.434  29.770  22.718  1.00  0.00     0.043 C 
ATOM     51  C   UNL     1     -46.246  27.491  23.960  1.00  0.00     0.064 C 
ATOM     52  H   UNL     1     -48.301  28.128  23.574  1.00  0.00     0.052 H 
ATOM     53  H   UNL     1     -47.394  27.685  22.147  1.00  0.00     0.052 H 
ATOM     54  C   UNL     1     -44.755  28.445  22.338  1.00  0.00     0.064 C 
ATOM     55  H   UNL     1     -45.017  30.104  23.678  1.00  0.00     0.052 H 
ATOM     56  H   UNL     1     -45.207  30.526  21.957  1.00  0.00     0.052 H 
ATOM     57  O   UNL     1     -44.964  27.406  23.308  1.00  0.00    -0.378 OA
ATOM     58  H   UNL     1     -46.098  28.005  24.917  1.00  0.00     0.059 H 
ATOM     59  H   UNL     1     -46.564  26.467  24.184  1.00  0.00     0.059 H 
ATOM     60  H   UNL     1     -43.675  28.590  22.243  1.00  0.00     0.059 H 
ATOM     61  H   UNL     1     -45.122  28.084  21.371  1.00  0.00     0.059 H 
ENDBRANCH  44  48
ENDBRANCH  32  33
ENDBRANCH   1  32
TORSDOF 8
ENDMDL
MODEL 3
REMARK VINA RESULT:      -9.7      2.640     11.154
REMARK SMILES Nc1ncnc2c1ccn2[C@@H]1O[C@H](COc2ccc3ccc(N4CCOCC4)nc3c2)[C@@H](O)[C@H]1O
REMARK SMILES IDX 14 1 13 4 11 5 12 6 34 7 32 9 10 13 2 14 3 15 7 16 4 17 6 18
REMARK SMILES IDX 8 19 5 20 9 22 1 25 35 28 33 30 15 32 16 33 17 34 31 35
REMARK SMILES IDX 18 36 30 38 19 40 29 42 20 43 22 44 21 45 23 48 24 49 28 50
REMARK SMILES IDX 25 51 27 54 26 57
REMARK H PARENT 14 2 14 3 11 8 34 10 13 11 32 12 4 21 8 23 9 24 1 26 1 27
REMARK H PARENT 35 29 33 31 17 37 31 39 18 41 20 46 21 47 24 52 24 53 28 55
REMARK H PARENT 28 56 25 58 25 59 27 60 27 61
REMARK Flexibility Score: inf
ROOT
ATOM      1  C   UNL     1     -48.945  35.454  26.817  1.00  0.00     0.117 C 
ATOM      2  H   UNL     1     -48.686  36.029  25.922  1.00  0.00     0.073 H 
ATOM      3  H   UNL     1     -50.013  35.216  26.731  1.00  0.00     0.073 H 
ENDROOT
BRANCH   1   4
ATOM      4  C   UNL     1     -48.156  34.148  26.939  1.00  0.00     0.123 C 
ATOM      5  C   UNL     1     -48.121  32.016  25.988  1.00  0.00     0.164 C 
ATOM      6  O   UNL     1     -48.978  33.015  26.592  1.00  0.00    -0.345 OA
ATOM      7  C   UNL     1     -46.705  32.606  25.900  1.00  0.00     0.128 C 
ATOM      8  H   UNL     1     -48.162  31.122  26.621  1.00  0.00     0.088 H 
ATOM      9  C   UNL     1     -46.979  34.099  25.975  1.00  0.00     0.114 C 
ATOM     10  H   UNL     1     -46.138  32.337  25.004  1.00  0.00     0.068 H 
ATOM     11  H   UNL     1     -47.824  34.003  27.974  1.00  0.00     0.067 H 
ATOM     12  H   UNL     1     -47.268  34.479  24.988  1.00  0.00     0.066 H 
BRANCH   5  13
ATOM     13  N   UNL     1     -48.651  31.641  24.682  1.00  0.00    -0.303 N 
ATOM     14  C   UNL     1     -48.072  30.258  21.477  1.00  0.00     0.136 A 
ATOM     15  N   UNL     1     -46.757  29.967  21.536  1.00  0.00    -0.219 NA
ATOM     16  C   UNL     1     -48.685  30.841  22.594  1.00  0.00     0.061 A 
ATOM     17  C   UNL     1     -46.092  30.241  22.674  1.00  0.00     0.120 A 
ATOM     18  C   UNL     1     -47.878  31.071  23.699  1.00  0.00     0.147 A 
ATOM     19  C   UNL     1     -49.990  31.293  22.937  1.00  0.00    -0.031 A 
ATOM     20  N   UNL     1     -46.565  30.800  23.804  1.00  0.00    -0.218 NA
ATOM     21  H   UNL     1     -45.037  29.978  22.678  1.00  0.00     0.106 H 
ATOM     22  C   UNL     1     -49.939  31.783  24.226  1.00  0.00     0.009 A 
ATOM     23  H   UNL     1     -50.873  31.252  22.314  1.00  0.00     0.065 H 
ATOM     24  H   UNL     1     -50.717  32.199  24.855  1.00  0.00     0.082 H 
BRANCH  14  25
ATOM     25  N   UNL     1     -48.737  29.975  20.294  1.00  0.00    -0.383 N 
ATOM     26  H   UNL     1     -48.142  30.150  19.493  1.00  0.00     0.158 HD
ATOM     27  H   UNL     1     -49.685  30.317  20.239  1.00  0.00     0.158 HD
ENDBRANCH  14  25
ENDBRANCH   5  13
BRANCH   7  28
ATOM     28  O   UNL     1     -45.899  32.237  27.038  1.00  0.00    -0.386 OA
ATOM     29  H   UNL     1     -45.783  33.048  27.570  1.00  0.00     0.211 HD
ENDBRANCH   7  28
BRANCH   9  30
ATOM     30  O   UNL     1     -45.856  34.828  26.446  1.00  0.00    -0.387 OA
ATOM     31  H   UNL     1     -45.177  34.153  26.659  1.00  0.00     0.211 HD
ENDBRANCH   9  30
ENDBRANCH   1   4
BRANCH   1  32
ATOM     32  O   UNL     1     -48.825  36.250  28.002  1.00  0.00    -0.491 OA
BRANCH  32  33
ATOM     33  C   UNL     1     -47.719  37.038  28.154  1.00  0.00     0.121 A 
ATOM     34  C   UNL     1     -46.943  36.730  29.272  1.00  0.00    -0.019 A 
ATOM     35  C   UNL     1     -47.316  38.077  27.310  1.00  0.00     0.007 A 
ATOM     36  C   UNL     1     -45.783  37.452  29.543  1.00  0.00    -0.049 A 
ATOM     37  H   UNL     1     -47.246  35.922  29.932  1.00  0.00     0.066 H 
ATOM     38  C   UNL     1     -46.161  38.811  27.557  1.00  0.00     0.076 A 
ATOM     39  H   UNL     1     -47.885  38.346  26.427  1.00  0.00     0.069 H 
ATOM     40  C   UNL     1     -45.389  38.491  28.688  1.00  0.00     0.001 A 
ATOM     41  H   UNL     1     -45.193  37.197  30.419  1.00  0.00     0.063 H 
ATOM     42  N   UNL     1     -45.819  39.797  26.707  1.00  0.00    -0.231 NA
ATOM     43  C   UNL     1     -44.234  39.240  28.920  1.00  0.00    -0.049 A 
ATOM     44  C   UNL     1     -44.699  40.516  26.932  1.00  0.00     0.129 A 
ATOM     45  C   UNL     1     -43.890  40.258  28.036  1.00  0.00    -0.019 A 
ATOM     46  H   UNL     1     -43.604  39.045  29.784  1.00  0.00     0.063 H 
ATOM     47  H   UNL     1     -43.006  40.859  28.222  1.00  0.00     0.066 H 
BRANCH  44  48
ATOM     48  N   UNL     1     -44.331  41.544  26.040  1.00  0.00    -0.352 N 
ATOM     49  C   UNL     1     -43.173  42.353  26.490  1.00  0.00     0.043 C 
ATOM     50  C   UNL     1     -45.507  42.367  25.660  1.00  0.00     0.043 C 
ATOM     51  C   UNL     1     -43.643  43.642  27.177  1.00  0.00     0.064 C 
ATOM     52  H   UNL     1     -42.480  41.792  27.129  1.00  0.00     0.052 H 
ATOM     53  H   UNL     1     -42.601  42.619  25.593  1.00  0.00     0.052 H 
ATOM     54  C   UNL     1     -45.071  43.783  25.252  1.00  0.00     0.064 C 
ATOM     55  H   UNL     1     -46.204  42.456  26.505  1.00  0.00     0.052 H 
ATOM     56  H   UNL     1     -46.031  41.893  24.823  1.00  0.00     0.052 H 
ATOM     57  O   UNL     1     -44.412  44.498  26.310  1.00  0.00    -0.378 OA
ATOM     58  H   UNL     1     -44.260  43.419  28.055  1.00  0.00     0.059 H 
ATOM     59  H   UNL     1     -42.780  44.222  27.522  1.00  0.00     0.059 H 
ATOM     60  H   UNL     1     -45.943  44.374  24.953  1.00  0.00     0.059 H 
ATOM     61  H   UNL     1     -44.391  43.748  24.393  1.00  0.00     0.059 H 
ENDBRANCH  44  48
ENDBRANCH  32  33
ENDBRANCH   1  32
TORSDOF 8
ENDMDL
MODEL 4
REMARK VINA RESULT:      -9.4      1.845      2.390
REMARK SMILES Nc1ncnc2c1ccn2[C@@H]1O[C@H](COc2ccc3ccc(N4CCOCC4)nc3c2)[C@@H](O)[C@H]1O
REMARK SMILES IDX 14 1 13 4 11 5 12 6 34 7 32 9 10 13 2 14 3 15 7 16 4 17 6 18
REMARK SMILES IDX 8 19 5 20 9 22 1 25 35 28 33 30 15 32 16 33 17 34 31 35
REMARK SMILES IDX 18 36 30 38 19 40 29 42 20 43 22 44 21 45 23 48 24 49 28 50
REMARK SMILES IDX 25 51 27 54 26 57
REMARK H PARENT 14 2 14 3 11 8 34 10 13 11 32 12 4 21 8 23 9 24 1 26 1 27
REMARK H PARENT 35 29 33 31 17 37 31 39 18 41 20 46 21 47 24 52 24 53 28 55
REMARK H PARENT 28 56 25 58 25 59 27 60 27 61
REMARK Flexibility Score: inf
ROOT
ATOM      1  C   UNL     1     -45.478  35.328  27.684  1.00  0.00     0.117 C 
ATOM      2  H   UNL     1     -44.388  35.369  27.784  1.00  0.00     0.073 H 
ATOM      3  H   UNL     1     -45.802  34.431  28.225  1.00  0.00     0.073 H 
ENDROOT
BRANCH   1   4
ATOM      4  C   UNL     1     -46.181  36.549  28.284  1.00  0.00     0.123 C 
ATOM      5  C   UNL     1     -45.803  38.835  28.568  1.00  0.00     0.164 C 
ATOM      6  O   UNL     1     -45.220  37.521  28.745  1.00  0.00    -0.345 OA
ATOM      7  C   UNL     1     -47.172  38.653  27.896  1.00  0.00     0.128 C 
ATOM      8  H   UNL     1     -45.884  39.295  29.560  1.00  0.00     0.088 H 
ATOM      9  C   UNL     1     -47.030  37.282  27.256  1.00  0.00     0.114 C 
ATOM     10  H   UNL     1     -47.444  39.421  27.166  1.00  0.00     0.068 H 
ATOM     11  H   UNL     1     -46.781  36.249  29.151  1.00  0.00     0.067 H 
ATOM     12  H   UNL     1     -46.501  37.365  26.300  1.00  0.00     0.066 H 
BRANCH   5  13
ATOM     13  N   UNL     1     -44.902  39.669  27.782  1.00  0.00    -0.303 N 
ATOM     14  C   UNL     1     -41.916  41.561  27.621  1.00  0.00     0.136 A 
ATOM     15  N   UNL     1     -41.433  41.421  28.872  1.00  0.00    -0.219 NA
ATOM     16  C   UNL     1     -43.126  40.936  27.291  1.00  0.00     0.061 A 
ATOM     17  C   UNL     1     -42.133  40.674  29.747  1.00  0.00     0.120 A 
ATOM     18  C   UNL     1     -43.741  40.200  28.292  1.00  0.00     0.147 A 
ATOM     19  C   UNL     1     -43.956  40.837  26.139  1.00  0.00    -0.031 A 
ATOM     20  N   UNL     1     -43.300  40.033  29.552  1.00  0.00    -0.218 NA
ATOM     21  H   UNL     1     -41.698  40.581  30.739  1.00  0.00     0.106 H 
ATOM     22  C   UNL     1     -45.042  40.054  26.471  1.00  0.00     0.009 A 
ATOM     23  H   UNL     1     -43.771  41.278  25.169  1.00  0.00     0.065 H 
ATOM     24  H   UNL     1     -45.887  39.728  25.875  1.00  0.00     0.082 H 
BRANCH  14  25
ATOM     25  N   UNL     1     -41.185  42.339  26.737  1.00  0.00    -0.383 N 
ATOM     26  H   UNL     1     -40.568  42.971  27.234  1.00  0.00     0.158 HD
ATOM     27  H   UNL     1     -41.711  42.730  25.969  1.00  0.00     0.158 HD
ENDBRANCH  14  25
ENDBRANCH   5  13
BRANCH   7  28
ATOM     28  O   UNL     1     -48.241  38.592  28.862  1.00  0.00    -0.386 OA
ATOM     29  H   UNL     1     -48.190  39.415  29.385  1.00  0.00     0.211 HD
ENDBRANCH   7  28
BRANCH   9  30
ATOM     30  O   UNL     1     -48.287  36.657  27.040  1.00  0.00    -0.387 OA
ATOM     31  H   UNL     1     -48.957  37.354  27.204  1.00  0.00     0.211 HD
ENDBRANCH   9  30
ENDBRANCH   1   4
BRANCH   1  32
ATOM     32  O   UNL     1     -45.870  35.116  26.323  1.00  0.00    -0.491 OA
BRANCH  32  33
ATOM     33  C   UNL     1     -46.494  33.944  25.995  1.00  0.00     0.121 A 
ATOM     34  C   UNL     1     -47.152  33.326  27.058  1.00  0.00    -0.019 A 
ATOM     35  C   UNL     1     -46.530  33.347  24.732  1.00  0.00     0.007 A 
ATOM     36  C   UNL     1     -47.834  32.127  26.862  1.00  0.00    -0.049 A 
ATOM     37  H   UNL     1     -47.132  33.784  28.044  1.00  0.00     0.066 H 
ATOM     38  C   UNL     1     -47.207  32.153  24.508  1.00  0.00     0.076 A 
ATOM     39  H   UNL     1     -46.038  33.796  23.876  1.00  0.00     0.069 H 
ATOM     40  C   UNL     1     -47.865  31.540  25.589  1.00  0.00     0.001 A 
ATOM     41  H   UNL     1     -48.340  31.661  27.703  1.00  0.00     0.063 H 
ATOM     42  N   UNL     1     -47.212  31.627  23.269  1.00  0.00    -0.231 NA
ATOM     43  C   UNL     1     -48.536  30.340  25.346  1.00  0.00    -0.049 A 
ATOM     44  C   UNL     1     -47.868  30.470  23.037  1.00  0.00     0.129 A 
ATOM     45  C   UNL     1     -48.535  29.804  24.062  1.00  0.00    -0.019 A 
ATOM     46  H   UNL     1     -49.053  29.817  26.145  1.00  0.00     0.063 H 
ATOM     47  H   UNL     1     -49.036  28.862  23.869  1.00  0.00     0.066 H 
BRANCH  44  48
ATOM     48  N   UNL     1     -47.884  29.919  21.739  1.00  0.00    -0.352 N 
ATOM     49  C   UNL     1     -47.924  30.927  20.652  1.00  0.00     0.043 C 
ATOM     50  C   UNL     1     -48.938  28.881  21.612  1.00  0.00     0.043 C 
ATOM     51  C   UNL     1     -49.362  31.143  20.162  1.00  0.00     0.064 C 
ATOM     52  H   UNL     1     -47.452  31.877  20.929  1.00  0.00     0.052 H 
ATOM     53  H   UNL     1     -47.325  30.528  19.824  1.00  0.00     0.052 H 
ATOM     54  C   UNL     1     -49.393  28.742  20.151  1.00  0.00     0.064 C 
ATOM     55  H   UNL     1     -49.815  29.147  22.218  1.00  0.00     0.052 H 
ATOM     56  H   UNL     1     -48.549  27.919  21.965  1.00  0.00     0.052 H 
ATOM     57  O   UNL     1     -49.961  29.950  19.620  1.00  0.00    -0.378 OA
ATOM     58  H   UNL     1     -50.006  31.497  20.974  1.00  0.00     0.059 H 
ATOM     59  H   UNL     1     -49.382  31.902  19.373  1.00  0.00     0.059 H 
ATOM     60  H   UNL     1     -50.153  27.959  20.067  1.00  0.00     0.059 H 
ATOM     61  H   UNL     1     -48.553  28.452  19.509  1.00  0.00     0.059 H 
ENDBRANCH  44  48
ENDBRANCH  32  33
ENDBRANCH   1  32
TORSDOF 8
ENDMDL
MODEL 5
REMARK VINA RESULT:      -9.3      1.774      2.281
REMARK SMILES Nc1ncnc2c1ccn2[C@@H]1O[C@H](COc2ccc3ccc(N4CCOCC4)nc3c2)[C@@H](O)[C@H]1O
REMARK SMILES IDX 14 1 13 4 11 5 12 6 34 7 32 9 10 13 2 14 3 15 7 16 4 17 6 18
REMARK SMILES IDX 8 19 5 20 9 22 1 25 35 28 33 30 15 32 16 33 17 34 31 35
REMARK SMILES IDX 18 36 30 38 19 40 29 42 20 43 22 44 21 45 23 48 24 49 28 50
REMARK SMILES IDX 25 51 27 54 26 57
REMARK H PARENT 14 2 14 3 11 8 34 10 13 11 32 12 4 21 8 23 9 24 1 26 1 27
REMARK H PARENT 35 29 33 31 17 37 31 39 18 41 20 46 21 47 24 52 24 53 28 55
REMARK H PARENT 28 56 25 58 25 59 27 60 27 61
REMARK Flexibility Score: inf
ROOT
ATOM      1  C   UNL     1     -45.899  34.294  27.217  1.00  0.00     0.117 C 
ATOM      2  H   UNL     1     -44.835  34.502  27.368  1.00  0.00     0.073 H 
ATOM      3  H   UNL     1     -46.063  33.265  27.562  1.00  0.00     0.073 H 
ENDROOT
BRANCH   1   4
ATOM      4  C   UNL     1     -46.812  35.233  28.009  1.00  0.00     0.123 C 
ATOM      5  C   UNL     1     -46.935  37.490  28.592  1.00  0.00     0.164 C 
ATOM      6  O   UNL     1     -46.062  36.336  28.561  1.00  0.00    -0.345 OA
ATOM      7  C   UNL     1     -48.274  37.082  27.960  1.00  0.00     0.128 C 
ATOM      8  H   UNL     1     -47.044  37.791  29.641  1.00  0.00     0.088 H 
ATOM      9  C   UNL     1     -47.876  35.873  27.130  1.00  0.00     0.114 C 
ATOM     10  H   UNL     1     -48.763  37.852  27.356  1.00  0.00     0.068 H 
ATOM     11  H   UNL     1     -47.265  34.697  28.851  1.00  0.00     0.067 H 
ATOM     12  H   UNL     1     -47.449  36.195  26.174  1.00  0.00     0.066 H 
BRANCH   5  13
ATOM     13  N   UNL     1     -46.303  38.603  27.893  1.00  0.00    -0.303 N 
ATOM     14  C   UNL     1     -43.663  40.953  27.732  1.00  0.00     0.136 A 
ATOM     15  N   UNL     1     -42.953  40.645  28.835  1.00  0.00    -0.219 NA
ATOM     16  C   UNL     1     -44.821  40.217  27.448  1.00  0.00     0.061 A 
ATOM     17  C   UNL     1     -43.383  39.633  29.612  1.00  0.00     0.120 A 
ATOM     18  C   UNL     1     -45.149  39.204  28.336  1.00  0.00     0.147 A 
ATOM     19  C   UNL     1     -45.822  40.216  26.436  1.00  0.00    -0.031 A 
ATOM     20  N   UNL     1     -44.474  38.861  29.448  1.00  0.00    -0.218 NA
ATOM     21  H   UNL     1     -42.772  39.415  30.483  1.00  0.00     0.106 H 
ATOM     22  C   UNL     1     -46.722  39.215  26.737  1.00  0.00     0.009 A 
ATOM     23  H   UNL     1     -45.870  40.869  25.574  1.00  0.00     0.065 H 
ATOM     24  H   UNL     1     -47.609  38.881  26.211  1.00  0.00     0.082 H 
BRANCH  14  25
ATOM     25  N   UNL     1     -43.206  42.003  26.950  1.00  0.00    -0.383 N 
ATOM     26  H   UNL     1     -42.368  41.740  26.445  1.00  0.00     0.158 HD
ATOM     27  H   UNL     1     -43.200  42.906  27.401  1.00  0.00     0.158 HD
ENDBRANCH  14  25
ENDBRANCH   5  13
BRANCH   7  28
ATOM     28  O   UNL     1     -49.229  36.655  28.952  1.00  0.00    -0.386 OA
ATOM     29  H   UNL     1     -48.720  36.458  29.762  1.00  0.00     0.211 HD
ENDBRANCH   7  28
BRANCH   9  30
ATOM     30  O   UNL     1     -48.974  35.007  26.883  1.00  0.00    -0.387 OA
ATOM     31  H   UNL     1     -48.829  34.229  27.463  1.00  0.00     0.211 HD
ENDBRANCH   9  30
ENDBRANCH   1   4
BRANCH   1  32
ATOM     32  O   UNL     1     -46.238  34.288  25.825  1.00  0.00    -0.491 OA
BRANCH  32  33
ATOM     33  C   UNL     1     -46.601  33.105  25.243  1.00  0.00     0.121 A 
ATOM     34  C   UNL     1     -46.160  32.952  23.929  1.00  0.00    -0.019 A 
ATOM     35  C   UNL     1     -47.339  32.079  25.838  1.00  0.00     0.007 A 
ATOM     36  C   UNL     1     -46.456  31.790  23.219  1.00  0.00    -0.049 A 
ATOM     37  H   UNL     1     -45.583  33.743  23.459  1.00  0.00     0.066 H 
ATOM     38  C   UNL     1     -47.646  30.908  25.153  1.00  0.00     0.076 A 
ATOM     39  H   UNL     1     -47.697  32.153  26.860  1.00  0.00     0.069 H 
ATOM     40  C   UNL     1     -47.196  30.767  23.828  1.00  0.00     0.001 A 
ATOM     41  H   UNL     1     -46.103  31.690  22.196  1.00  0.00     0.063 H 
ATOM     42  N   UNL     1     -48.356  29.951  25.779  1.00  0.00    -0.231 NA
ATOM     43  C   UNL     1     -47.515  29.586  23.156  1.00  0.00    -0.049 A 
ATOM     44  C   UNL     1     -48.657  28.808  25.127  1.00  0.00     0.129 A 
ATOM     45  C   UNL     1     -48.250  28.603  23.810  1.00  0.00    -0.019 A 
ATOM     46  H   UNL     1     -47.203  29.426  22.127  1.00  0.00     0.063 H 
ATOM     47  H   UNL     1     -48.521  27.692  23.288  1.00  0.00     0.066 H 
BRANCH  44  48
ATOM     48  N   UNL     1     -49.394  27.798  25.780  1.00  0.00    -0.352 N 
ATOM     49  C   UNL     1     -48.734  27.252  26.990  1.00  0.00     0.043 C 
ATOM     50  C   UNL     1     -49.824  26.747  24.824  1.00  0.00     0.043 C 
ATOM     51  C   UNL     1     -47.981  25.955  26.661  1.00  0.00     0.064 C 
ATOM     52  H   UNL     1     -48.077  27.977  27.486  1.00  0.00     0.052 H 
ATOM     53  H   UNL     1     -49.527  27.026  27.713  1.00  0.00     0.052 H 
ATOM     54  C   UNL     1     -50.036  25.408  25.546  1.00  0.00     0.064 C 
ATOM     55  H   UNL     1     -49.062  26.598  24.046  1.00  0.00     0.052 H 
ATOM     56  H   UNL     1     -50.760  27.052  24.341  1.00  0.00     0.052 H 
ATOM     57  O   UNL     1     -48.843  24.909  26.171  1.00  0.00    -0.378 OA
ATOM     58  H   UNL     1     -47.208  26.129  25.904  1.00  0.00     0.059 H 
ATOM     59  H   UNL     1     -47.483  25.571  27.557  1.00  0.00     0.059 H 
ATOM     60  H   UNL     1     -50.375  24.647  24.835  1.00  0.00     0.059 H 
ATOM     61  H   UNL     1     -50.809  25.500  26.317  1.00  0.00     0.059 H 
ENDBRANCH  44  48
ENDBRANCH  32  33
ENDBRANCH   1  32
TORSDOF 8
ENDMDL
MODEL 6
REMARK VINA RESULT:      -9.2      2.830     11.812
REMARK SMILES Nc1ncnc2c1ccn2[C@@H]1O[C@H](COc2ccc3ccc(N4CCOCC4)nc3c2)[C@@H](O)[C@H]1O
REMARK SMILES IDX 14 1 13 4 11 5 12 6 34 7 32 9 10 13 2 14 3 15 7 16 4 17 6 18
REMARK SMILES IDX 8 19 5 20 9 22 1 25 35 28 33 30 15 32 16 33 17 34 31 35
REMARK SMILES IDX 18 36 30 38 19 40 29 42 20 43 22 44 21 45 23 48 24 49 28 50
REMARK SMILES IDX 25 51 27 54 26 57
REMARK H PARENT 14 2 14 3 11 8 34 10 13 11 32 12 4 21 8 23 9 24 1 26 1 27
REMARK H PARENT 35 29 33 31 17 37 31 39 18 41 20 46 21 47 24 52 24 53 28 55
REMARK H PARENT 28 56 25 58 25 59 27 60 27 61
REMARK Flexibility Score: inf
ROOT
ATOM      1  C   UNL     1     -46.783  32.460  24.928  1.00  0.00     0.117 C 
ATOM      2  H   UNL     1     -46.416  31.881  25.782  1.00  0.00     0.073 H 
ATOM      3  H   UNL     1     -45.894  32.864  24.426  1.00  0.00     0.073 H 
ENDROOT
BRANCH   1   4
ATOM      4  C   UNL     1     -47.577  31.616  23.928  1.00  0.00     0.123 C 
ATOM      5  C   UNL     1     -47.683  29.406  23.183  1.00  0.00     0.164 C 
ATOM      6  O   UNL     1     -46.784  30.512  23.444  1.00  0.00    -0.345 OA
ATOM      7  C   UNL     1     -49.096  29.843  23.598  1.00  0.00     0.128 C 
ATOM      8  H   UNL     1     -47.616  29.174  22.114  1.00  0.00     0.088 H 
ATOM      9  C   UNL     1     -48.804  30.981  24.563  1.00  0.00     0.114 C 
ATOM     10  H   UNL     1     -49.714  29.065  24.055  1.00  0.00     0.068 H 
ATOM     11  H   UNL     1     -47.852  32.223  23.057  1.00  0.00     0.067 H 
ATOM     12  H   UNL     1     -48.567  30.581  25.556  1.00  0.00     0.066 H 
BRANCH   5  13
ATOM     13  N   UNL     1     -47.229  28.225  23.907  1.00  0.00    -0.303 N 
ATOM     14  C   UNL     1     -47.956  25.628  26.198  1.00  0.00     0.136 A 
ATOM     15  N   UNL     1     -49.237  25.896  26.521  1.00  0.00    -0.219 NA
ATOM     16  C   UNL     1     -47.300  26.467  25.288  1.00  0.00     0.061 A 
ATOM     17  C   UNL     1     -49.834  26.956  25.943  1.00  0.00     0.120 A 
ATOM     18  C   UNL     1     -48.035  27.524  24.773  1.00  0.00     0.147 A 
ATOM     19  C   UNL     1     -46.005  26.544  24.703  1.00  0.00    -0.031 A 
ATOM     20  N   UNL     1     -49.311  27.832  25.065  1.00  0.00    -0.218 NA
ATOM     21  H   UNL     1     -50.869  27.125  26.227  1.00  0.00     0.106 H 
ATOM     22  C   UNL     1     -45.989  27.636  23.861  1.00  0.00     0.009 A 
ATOM     23  H   UNL     1     -45.179  25.865  24.870  1.00  0.00     0.065 H 
ATOM     24  H   UNL     1     -45.204  28.025  23.222  1.00  0.00     0.082 H 
BRANCH  14  25
ATOM     25  N   UNL     1     -47.358  24.536  26.808  1.00  0.00    -0.383 N 
ATOM     26  H   UNL     1     -47.882  23.688  26.629  1.00  0.00     0.158 HD
ATOM     27  H   UNL     1     -47.051  24.687  27.759  1.00  0.00     0.158 HD
ENDBRANCH  14  25
ENDBRANCH   5  13
BRANCH   7  28
ATOM     28  O   UNL     1     -49.842  30.376  22.485  1.00  0.00    -0.386 OA
ATOM     29  H   UNL     1     -49.768  29.723  21.763  1.00  0.00     0.211 HD
ENDBRANCH   7  28
BRANCH   9  30
ATOM     30  O   UNL     1     -49.894  31.885  24.672  1.00  0.00    -0.387 OA
ATOM     31  H   UNL     1     -50.117  32.138  23.751  1.00  0.00     0.211 HD
ENDBRANCH   9  30
ENDBRANCH   1   4
BRANCH   1  32
ATOM     32  O   UNL     1     -47.531  33.604  25.356  1.00  0.00    -0.491 OA
BRANCH  32  33
ATOM     33  C   UNL     1     -46.987  34.428  26.302  1.00  0.00     0.121 A 
ATOM     34  C   UNL     1     -46.582  33.777  27.467  1.00  0.00    -0.019 A 
ATOM     35  C   UNL     1     -46.805  35.809  26.195  1.00  0.00     0.007 A 
ATOM     36  C   UNL     1     -46.006  34.497  28.511  1.00  0.00    -0.049 A 
ATOM     37  H   UNL     1     -46.717  32.703  27.559  1.00  0.00     0.066 H 
ATOM     38  C   UNL     1     -46.229  36.552  27.221  1.00  0.00     0.076 A 
ATOM     39  H   UNL     1     -47.100  36.356  25.306  1.00  0.00     0.069 H 
ATOM     40  C   UNL     1     -45.826  35.883  28.391  1.00  0.00     0.001 A 
ATOM     41  H   UNL     1     -45.697  33.972  29.411  1.00  0.00     0.063 H 
ATOM     42  N   UNL     1     -46.074  37.879  27.060  1.00  0.00    -0.231 NA
ATOM     43  C   UNL     1     -45.253  36.644  29.410  1.00  0.00    -0.049 A 
ATOM     44  C   UNL     1     -45.514  38.611  28.046  1.00  0.00     0.129 A 
ATOM     45  C   UNL     1     -45.098  38.016  29.235  1.00  0.00    -0.019 A 
ATOM     46  H   UNL     1     -44.932  36.183  30.340  1.00  0.00     0.063 H 
ATOM     47  H   UNL     1     -44.673  38.618  30.031  1.00  0.00     0.066 H 
BRANCH  44  48
ATOM     48  N   UNL     1     -45.340  40.000  27.880  1.00  0.00    -0.352 N 
ATOM     49  C   UNL     1     -45.795  40.516  26.566  1.00  0.00     0.043 C 
ATOM     50  C   UNL     1     -43.955  40.411  28.221  1.00  0.00     0.043 C 
ATOM     51  C   UNL     1     -44.615  40.641  25.592  1.00  0.00     0.064 C 
ATOM     52  H   UNL     1     -46.608  39.923  26.130  1.00  0.00     0.052 H 
ATOM     53  H   UNL     1     -46.215  41.513  26.741  1.00  0.00     0.052 H 
ATOM     54  C   UNL     1     -43.570  41.699  27.478  1.00  0.00     0.064 C 
ATOM     55  H   UNL     1     -43.240  39.627  27.937  1.00  0.00     0.052 H 
ATOM     56  H   UNL     1     -43.879  40.578  29.302  1.00  0.00     0.052 H 
ATOM     57  O   UNL     1     -43.599  41.556  26.048  1.00  0.00    -0.378 OA
ATOM     58  H   UNL     1     -44.136  39.670  25.427  1.00  0.00     0.059 H 
ATOM     59  H   UNL     1     -44.965  41.005  24.621  1.00  0.00     0.059 H 
ATOM     60  H   UNL     1     -42.556  42.004  27.755  1.00  0.00     0.059 H 
ATOM     61  H   UNL     1     -44.243  42.521  27.749  1.00  0.00     0.059 H 
ENDBRANCH  44  48
ENDBRANCH  32  33
ENDBRANCH   1  32
TORSDOF 8
ENDMDL
MODEL 7
REMARK VINA RESULT:      -9.0      2.943     11.357
REMARK SMILES Nc1ncnc2c1ccn2[C@@H]1O[C@H](COc2ccc3ccc(N4CCOCC4)nc3c2)[C@@H](O)[C@H]1O
REMARK SMILES IDX 14 1 13 4 11 5 12 6 34 7 32 9 10 13 2 14 3 15 7 16 4 17 6 18
REMARK SMILES IDX 8 19 5 20 9 22 1 25 35 28 33 30 15 32 16 33 17 34 31 35
REMARK SMILES IDX 18 36 30 38 19 40 29 42 20 43 22 44 21 45 23 48 24 49 28 50
REMARK SMILES IDX 25 51 27 54 26 57
REMARK H PARENT 14 2 14 3 11 8 34 10 13 11 32 12 4 21 8 23 9 24 1 26 1 27
REMARK H PARENT 35 29 33 31 17 37 31 39 18 41 20 46 21 47 24 52 24 53 28 55
REMARK H PARENT 28 56 25 58 25 59 27 60 27 61
REMARK Flexibility Score: inf
ROOT
ATOM      1  C   UNL     1     -46.634  33.419  26.143  1.00  0.00     0.117 C 
ATOM      2  H   UNL     1     -45.935  32.606  26.368  1.00  0.00     0.073 H 
ATOM      3  H   UNL     1     -46.046  34.199  25.643  1.00  0.00     0.073 H 
ENDROOT
BRANCH   1   4
ATOM      4  C   UNL     1     -47.774  32.989  25.216  1.00  0.00     0.123 C 
ATOM      5  C   UNL     1     -48.392  31.146  23.923  1.00  0.00     0.164 C 
ATOM      6  O   UNL     1     -47.304  32.055  24.222  1.00  0.00    -0.345 OA
ATOM      7  C   UNL     1     -49.570  31.508  24.840  1.00  0.00     0.128 C 
ATOM      8  H   UNL     1     -48.638  31.266  22.861  1.00  0.00     0.088 H 
ATOM      9  C   UNL     1     -48.875  32.255  25.966  1.00  0.00     0.114 C 
ATOM     10  H   UNL     1     -50.156  30.661  25.209  1.00  0.00     0.068 H 
ATOM     11  H   UNL     1     -48.172  33.859  24.680  1.00  0.00     0.067 H 
ATOM     12  H   UNL     1     -48.451  31.545  26.685  1.00  0.00     0.066 H 
BRANCH   5  13
ATOM     13  N   UNL     1     -47.944  29.770  24.105  1.00  0.00    -0.303 N 
ATOM     14  C   UNL     1     -45.535  27.269  23.427  1.00  0.00     0.136 A 
ATOM     15  N   UNL     1     -44.662  27.932  22.643  1.00  0.00    -0.219 NA
ATOM     16  C   UNL     1     -46.662  27.949  23.909  1.00  0.00     0.061 A 
ATOM     17  C   UNL     1     -44.908  29.227  22.366  1.00  0.00     0.120 A 
ATOM     18  C   UNL     1     -46.790  29.280  23.541  1.00  0.00     0.147 A 
ATOM     19  C   UNL     1     -47.786  27.637  24.725  1.00  0.00    -0.031 A 
ATOM     20  N   UNL     1     -45.949  29.982  22.762  1.00  0.00    -0.218 NA
ATOM     21  H   UNL     1     -44.170  29.721  21.739  1.00  0.00     0.106 H 
ATOM     22  C   UNL     1     -48.559  28.775  24.825  1.00  0.00     0.009 A 
ATOM     23  H   UNL     1     -47.998  26.688  25.197  1.00  0.00     0.065 H 
ATOM     24  H   UNL     1     -49.481  28.957  25.366  1.00  0.00     0.082 H 
BRANCH  14  25
ATOM     25  N   UNL     1     -45.268  25.935  23.696  1.00  0.00    -0.383 N 
ATOM     26  H   UNL     1     -44.281  25.792  23.875  1.00  0.00     0.158 HD
ATOM     27  H   UNL     1     -45.718  25.272  23.081  1.00  0.00     0.158 HD
ENDBRANCH  14  25
ENDBRANCH   5  13
BRANCH   7  28
ATOM     28  O   UNL     1     -50.492  32.413  24.198  1.00  0.00    -0.386 OA
ATOM     29  H   UNL     1     -50.742  33.076  24.870  1.00  0.00     0.211 HD
ENDBRANCH   7  28
BRANCH   9  30
ATOM     30  O   UNL     1     -49.755  33.138  26.647  1.00  0.00    -0.387 OA
ATOM     31  H   UNL     1     -50.241  32.579  27.290  1.00  0.00     0.211 HD
ENDBRANCH   9  30
ENDBRANCH   1   4
BRANCH   1  32
ATOM     32  O   UNL     1     -47.134  34.025  27.340  1.00  0.00    -0.491 OA
BRANCH  32  33
ATOM     33  C   UNL     1     -47.299  35.382  27.369  1.00  0.00     0.121 A 
ATOM     34  C   UNL     1     -48.508  35.803  27.921  1.00  0.00    -0.019 A 
ATOM     35  C   UNL     1     -46.388  36.340  26.916  1.00  0.00     0.007 A 
ATOM     36  C   UNL     1     -48.803  37.161  28.018  1.00  0.00    -0.049 A 
ATOM     37  H   UNL     1     -49.222  35.066  28.279  1.00  0.00     0.066 H 
ATOM     38  C   UNL     1     -46.656  37.702  27.002  1.00  0.00     0.076 A 
ATOM     39  H   UNL     1     -45.433  36.058  26.484  1.00  0.00     0.069 H 
ATOM     40  C   UNL     1     -47.880  38.112  27.561  1.00  0.00     0.001 A 
ATOM     41  H   UNL     1     -49.751  37.468  28.451  1.00  0.00     0.063 H 
ATOM     42  N   UNL     1     -45.738  38.579  26.555  1.00  0.00    -0.231 NA
ATOM     43  C   UNL     1     -48.132  39.482  27.638  1.00  0.00    -0.049 A 
ATOM     44  C   UNL     1     -45.984  39.904  26.636  1.00  0.00     0.129 A 
ATOM     45  C   UNL     1     -47.178  40.381  27.172  1.00  0.00    -0.019 A 
ATOM     46  H   UNL     1     -49.065  39.857  28.051  1.00  0.00     0.063 H 
ATOM     47  H   UNL     1     -47.376  41.447  27.208  1.00  0.00     0.066 H 
BRANCH  44  48
ATOM     48  N   UNL     1     -45.023  40.827  26.177  1.00  0.00    -0.352 N 
ATOM     49  C   UNL     1     -43.664  40.617  26.732  1.00  0.00     0.043 C 
ATOM     50  C   UNL     1     -45.507  42.222  26.330  1.00  0.00     0.043 C 
ATOM     51  C   UNL     1     -43.417  41.541  27.932  1.00  0.00     0.064 C 
ATOM     52  H   UNL     1     -43.463  39.570  26.989  1.00  0.00     0.052 H 
ATOM     53  H   UNL     1     -42.951  40.870  25.938  1.00  0.00     0.052 H 
ATOM     54  C   UNL     1     -44.326  43.199  26.451  1.00  0.00     0.064 C 
ATOM     55  H   UNL     1     -46.123  42.320  27.234  1.00  0.00     0.052 H 
ATOM     56  H   UNL     1     -46.117  42.496  25.461  1.00  0.00     0.052 H 
ATOM     57  O   UNL     1     -43.496  42.940  27.595  1.00  0.00    -0.378 OA
ATOM     58  H   UNL     1     -44.142  41.352  28.732  1.00  0.00     0.059 H 
ATOM     59  H   UNL     1     -42.418  41.364  28.345  1.00  0.00     0.059 H 
ATOM     60  H   UNL     1     -44.694  44.225  26.540  1.00  0.00     0.059 H 
ATOM     61  H   UNL     1     -43.693  43.156  25.557  1.00  0.00     0.059 H 
ENDBRANCH  44  48
ENDBRANCH  32  33
ENDBRANCH   1  32
TORSDOF 8
ENDMDL
