MODEL 1
REMARK VINA RESULT:     -10.6      0.000      0.000
REMARK SMILES CN(C)c1ccc2ccc(OC[C@H]3O[C@@H](n4ccc5c(N)ncnc54)[C@H](O)[C@@H]3O)cc2n1
REMARK SMILES IDX 12 1 11 4 10 5 4 6 5 7 32 8 6 9 31 11 7 12 30 14 8 15 9 17
REMARK SMILES IDX 2 20 1 21 3 25 13 29 14 30 28 31 15 33 26 34 29 38 16 40
REMARK SMILES IDX 17 41 25 42 18 43 19 45 24 46 20 48 23 49 22 50 21 52 27 55
REMARK H PARENT 12 2 12 3 5 10 6 13 30 16 8 18 9 19 1 22 1 23 1 24 3 26 3 27
REMARK H PARENT 3 28 13 32 28 35 15 36 26 37 29 39 17 44 18 47 23 51 21 53
REMARK H PARENT 21 54 27 56
REMARK Flexibility Score: inf
ROOT
ATOM      1  C   UNL     1     -47.497  36.276  27.269  1.00  0.00     0.117 C 
ATOM      2  H   UNL     1     -48.098  37.141  27.573  1.00  0.00     0.073 H 
ATOM      3  H   UNL     1     -47.094  36.481  26.268  1.00  0.00     0.073 H 
ENDROOT
BRANCH   1   4
ATOM      4  O   UNL     1     -48.386  35.145  27.283  1.00  0.00    -0.491 OA
BRANCH   4   5
ATOM      5  C   UNL     1     -47.948  34.160  26.443  1.00  0.00     0.121 A 
ATOM      6  C   UNL     1     -48.530  29.803  24.633  1.00  0.00     0.128 A 
ATOM      7  C   UNL     1     -47.388  29.943  23.846  1.00  0.00    -0.019 A 
ATOM      8  N   UNL     1     -48.948  30.816  25.423  1.00  0.00    -0.231 NA
ATOM      9  C   UNL     1     -46.651  31.124  23.896  1.00  0.00    -0.049 A 
ATOM     10  H   UNL     1     -47.081  29.149  23.175  1.00  0.00     0.066 H 
ATOM     11  C   UNL     1     -48.244  31.960  25.479  1.00  0.00     0.076 A 
ATOM     12  C   UNL     1     -47.068  32.162  24.732  1.00  0.00     0.001 A 
ATOM     13  H   UNL     1     -45.763  31.224  23.279  1.00  0.00     0.063 H 
ATOM     14  C   UNL     1     -48.676  32.980  26.311  1.00  0.00     0.007 A 
ATOM     15  C   UNL     1     -46.356  33.372  24.832  1.00  0.00    -0.049 A 
ATOM     16  H   UNL     1     -49.594  32.841  26.878  1.00  0.00     0.069 H 
ATOM     17  C   UNL     1     -46.801  34.375  25.690  1.00  0.00    -0.019 A 
ATOM     18  H   UNL     1     -45.456  33.534  24.244  1.00  0.00     0.063 H 
ATOM     19  H   UNL     1     -46.257  35.311  25.770  1.00  0.00     0.066 H 
BRANCH   6  20
ATOM     20  N   UNL     1     -49.275  28.604  24.582  1.00  0.00    -0.363 N 
BRANCH  20  21
ATOM     21  C   UNL     1     -49.087  27.774  25.775  1.00  0.00     0.008 C 
ATOM     22  H   UNL     1     -48.487  28.283  26.538  1.00  0.00     0.046 H 
ATOM     23  H   UNL     1     -50.048  27.473  26.207  1.00  0.00     0.046 H 
ATOM     24  H   UNL     1     -48.565  26.850  25.504  1.00  0.00     0.046 H 
ENDBRANCH  20  21
BRANCH  20  25
ATOM     25  C   UNL     1     -49.097  27.880  23.324  1.00  0.00     0.008 C 
ATOM     26  H   UNL     1     -48.468  26.991  23.459  1.00  0.00     0.046 H 
ATOM     27  H   UNL     1     -50.069  27.547  22.941  1.00  0.00     0.046 H 
ATOM     28  H   UNL     1     -48.658  28.512  22.544  1.00  0.00     0.046 H 
ENDBRANCH  20  25
ENDBRANCH   6  20
ENDBRANCH   4   5
ENDBRANCH   1   4
BRANCH   1  29
ATOM     29  C   UNL     1     -46.367  36.046  28.282  1.00  0.00     0.123 C 
ATOM     30  O   UNL     1     -45.220  36.848  27.907  1.00  0.00    -0.345 OA
ATOM     31  C   UNL     1     -46.754  36.483  29.693  1.00  0.00     0.114 C 
ATOM     32  H   UNL     1     -46.044  34.999  28.254  1.00  0.00     0.067 H 
ATOM     33  C   UNL     1     -45.004  37.851  28.930  1.00  0.00     0.164 C 
ATOM     34  C   UNL     1     -46.305  37.934  29.732  1.00  0.00     0.128 C 
ATOM     35  H   UNL     1     -47.812  36.350  29.940  1.00  0.00     0.066 H 
ATOM     36  H   UNL     1     -44.164  37.516  29.550  1.00  0.00     0.088 H 
ATOM     37  H   UNL     1     -47.043  38.574  29.234  1.00  0.00     0.068 H 
BRANCH  31  38
ATOM     38  O   UNL     1     -45.992  35.765  30.682  1.00  0.00    -0.387 OA
ATOM     39  H   UNL     1     -46.148  36.189  31.545  1.00  0.00     0.211 HD
ENDBRANCH  31  38
BRANCH  33  40
ATOM     40  N   UNL     1     -44.631  39.106  28.297  1.00  0.00    -0.303 N 
ATOM     41  C   UNL     1     -45.183  39.639  27.155  1.00  0.00     0.009 A 
ATOM     42  C   UNL     1     -43.655  39.953  28.767  1.00  0.00     0.147 A 
ATOM     43  C   UNL     1     -44.535  40.824  26.878  1.00  0.00    -0.031 A 
ATOM     44  H   UNL     1     -45.968  39.128  26.618  1.00  0.00     0.082 H 
ATOM     45  C   UNL     1     -43.571  41.035  27.900  1.00  0.00     0.061 A 
ATOM     46  N   UNL     1     -42.912  39.761  29.870  1.00  0.00    -0.218 NA
ATOM     47  H   UNL     1     -44.729  41.461  26.025  1.00  0.00     0.065 H 
ATOM     48  C   UNL     1     -42.618  42.016  28.206  1.00  0.00     0.136 A 
ATOM     49  C   UNL     1     -42.038  40.764  30.059  1.00  0.00     0.120 A 
ATOM     50  N   UNL     1     -41.854  41.866  29.305  1.00  0.00    -0.219 NA
ATOM     51  H   UNL     1     -41.399  40.678  30.933  1.00  0.00     0.106 H 
BRANCH  48  52
ATOM     52  N   UNL     1     -42.423  43.164  27.448  1.00  0.00    -0.383 N 
ATOM     53  H   UNL     1     -43.317  43.584  27.218  1.00  0.00     0.158 HD
ATOM     54  H   UNL     1     -41.773  43.048  26.683  1.00  0.00     0.158 HD
ENDBRANCH  48  52
ENDBRANCH  33  40
BRANCH  34  55
ATOM     55  O   UNL     1     -46.150  38.384  31.074  1.00  0.00    -0.386 OA
ATOM     56  H   UNL     1     -45.485  37.788  31.477  1.00  0.00     0.211 HD
ENDBRANCH  34  55
ENDBRANCH   1  29
TORSDOF 10
ENDMDL
MODEL 2
REMARK VINA RESULT:      -9.7      1.437      2.131
REMARK SMILES CN(C)c1ccc2ccc(OC[C@H]3O[C@@H](n4ccc5c(N)ncnc54)[C@H](O)[C@@H]3O)cc2n1
REMARK SMILES IDX 12 1 11 4 10 5 4 6 5 7 32 8 6 9 31 11 7 12 30 14 8 15 9 17
REMARK SMILES IDX 2 20 1 21 3 25 13 29 14 30 28 31 15 33 26 34 29 38 16 40
REMARK SMILES IDX 17 41 25 42 18 43 19 45 24 46 20 48 23 49 22 50 21 52 27 55
REMARK H PARENT 12 2 12 3 5 10 6 13 30 16 8 18 9 19 1 22 1 23 1 24 3 26 3 27
REMARK H PARENT 3 28 13 32 28 35 15 36 26 37 29 39 17 44 18 47 23 51 21 53
REMARK H PARENT 21 54 27 56
REMARK Flexibility Score: inf
ROOT
ATOM      1  C   UNL     1     -46.583  35.912  26.911  1.00  0.00     0.117 C 
ATOM      2  H   UNL     1     -46.809  36.927  26.565  1.00  0.00     0.073 H 
ATOM      3  H   UNL     1     -46.064  35.387  26.098  1.00  0.00     0.073 H 
ENDROOT
BRANCH   1   4
ATOM      4  O   UNL     1     -47.848  35.308  27.237  1.00  0.00    -0.491 OA
BRANCH   4   5
ATOM      5  C   UNL     1     -48.100  34.227  26.438  1.00  0.00     0.121 A 
ATOM      6  C   UNL     1     -46.594  31.209  23.088  1.00  0.00     0.128 A 
ATOM      7  C   UNL     1     -47.809  30.526  23.113  1.00  0.00    -0.019 A 
ATOM      8  N   UNL     1     -46.375  32.250  23.921  1.00  0.00    -0.231 NA
ATOM      9  C   UNL     1     -48.820  30.937  23.979  1.00  0.00    -0.049 A 
ATOM     10  H   UNL     1     -47.967  29.660  22.480  1.00  0.00     0.066 H 
ATOM     11  C   UNL     1     -47.343  32.655  24.760  1.00  0.00     0.076 A 
ATOM     12  C   UNL     1     -48.603  32.029  24.822  1.00  0.00     0.001 A 
ATOM     13  H   UNL     1     -49.762  30.399  23.992  1.00  0.00     0.063 H 
ATOM     14  C   UNL     1     -47.107  33.739  25.592  1.00  0.00     0.007 A 
ATOM     15  C   UNL     1     -49.591  32.497  25.708  1.00  0.00    -0.049 A 
ATOM     16  H   UNL     1     -46.131  34.217  25.566  1.00  0.00     0.069 H 
ATOM     17  C   UNL     1     -49.336  33.599  26.521  1.00  0.00    -0.019 A 
ATOM     18  H   UNL     1     -50.558  32.004  25.766  1.00  0.00     0.063 H 
ATOM     19  H   UNL     1     -50.094  33.962  27.208  1.00  0.00     0.066 H 
BRANCH   6  20
ATOM     20  N   UNL     1     -45.572  30.791  22.207  1.00  0.00    -0.363 N 
BRANCH  20  21
ATOM     21  C   UNL     1     -45.826  31.191  20.820  1.00  0.00     0.008 C 
ATOM     22  H   UNL     1     -46.233  30.365  20.224  1.00  0.00     0.046 H 
ATOM     23  H   UNL     1     -46.509  32.048  20.771  1.00  0.00     0.046 H 
ATOM     24  H   UNL     1     -44.890  31.511  20.351  1.00  0.00     0.046 H 
ENDBRANCH  20  21
BRANCH  20  25
ATOM     25  C   UNL     1     -45.235  29.377  22.362  1.00  0.00     0.008 C 
ATOM     26  H   UNL     1     -44.385  29.240  23.042  1.00  0.00     0.046 H 
ATOM     27  H   UNL     1     -46.088  28.829  22.779  1.00  0.00     0.046 H 
ATOM     28  H   UNL     1     -45.003  28.902  21.402  1.00  0.00     0.046 H 
ENDBRANCH  20  25
ENDBRANCH   6  20
ENDBRANCH   4   5
ENDBRANCH   1   4
BRANCH   1  29
ATOM     29  C   UNL     1     -45.711  35.974  28.173  1.00  0.00     0.123 C 
ATOM     30  O   UNL     1     -44.652  36.943  27.974  1.00  0.00    -0.345 OA
ATOM     31  C   UNL     1     -46.495  36.440  29.398  1.00  0.00     0.114 C 
ATOM     32  H   UNL     1     -45.226  35.006  28.344  1.00  0.00     0.067 H 
ATOM     33  C   UNL     1     -44.856  38.045  28.892  1.00  0.00     0.164 C 
ATOM     34  C   UNL     1     -46.309  37.947  29.364  1.00  0.00     0.128 C 
ATOM     35  H   UNL     1     -47.545  36.133  29.414  1.00  0.00     0.066 H 
ATOM     36  H   UNL     1     -44.150  37.920  29.721  1.00  0.00     0.088 H 
ATOM     37  H   UNL     1     -46.997  38.400  28.640  1.00  0.00     0.068 H 
BRANCH  31  38
ATOM     38  O   UNL     1     -45.891  35.955  30.611  1.00  0.00    -0.387 OA
ATOM     39  H   UNL     1     -46.172  35.030  30.736  1.00  0.00     0.211 HD
ENDBRANCH  31  38
BRANCH  33  40
ATOM     40  N   UNL     1     -44.548  39.294  28.215  1.00  0.00    -0.303 N 
ATOM     41  C   UNL     1     -45.147  39.771  27.071  1.00  0.00     0.009 A 
ATOM     42  C   UNL     1     -43.595  40.191  28.637  1.00  0.00     0.147 A 
ATOM     43  C   UNL     1     -44.553  40.972  26.746  1.00  0.00    -0.031 A 
ATOM     44  H   UNL     1     -45.924  39.214  26.569  1.00  0.00     0.082 H 
ATOM     45  C   UNL     1     -43.574  41.250  27.737  1.00  0.00     0.061 A 
ATOM     46  N   UNL     1     -42.820  40.061  29.726  1.00  0.00    -0.218 NA
ATOM     47  H   UNL     1     -44.792  41.575  25.879  1.00  0.00     0.065 H 
ATOM     48  C   UNL     1     -42.653  42.276  27.991  1.00  0.00     0.136 A 
ATOM     49  C   UNL     1     -41.982  41.102  29.865  1.00  0.00     0.120 A 
ATOM     50  N   UNL     1     -41.859  42.187  29.076  1.00  0.00    -0.219 NA
ATOM     51  H   UNL     1     -41.320  41.067  30.725  1.00  0.00     0.106 H 
BRANCH  48  52
ATOM     52  N   UNL     1     -42.522  43.408  27.196  1.00  0.00    -0.383 N 
ATOM     53  H   UNL     1     -41.780  43.273  26.520  1.00  0.00     0.158 HD
ATOM     54  H   UNL     1     -42.503  44.275  27.715  1.00  0.00     0.158 HD
ENDBRANCH  48  52
ENDBRANCH  33  40
BRANCH  34  55
ATOM     55  O   UNL     1     -46.560  38.521  30.643  1.00  0.00    -0.386 OA
ATOM     56  H   UNL     1     -47.497  38.807  30.624  1.00  0.00     0.211 HD
ENDBRANCH  34  55
ENDBRANCH   1  29
TORSDOF 10
ENDMDL
MODEL 3
REMARK VINA RESULT:      -9.1      3.121     11.037
REMARK SMILES CN(C)c1ccc2ccc(OC[C@H]3O[C@@H](n4ccc5c(N)ncnc54)[C@H](O)[C@@H]3O)cc2n1
REMARK SMILES IDX 12 1 11 4 10 5 4 6 5 7 32 8 6 9 31 11 7 12 30 14 8 15 9 17
REMARK SMILES IDX 2 20 1 21 3 25 13 29 14 30 28 31 15 33 26 34 29 38 16 40
REMARK SMILES IDX 17 41 25 42 18 43 19 45 24 46 20 48 23 49 22 50 21 52 27 55
REMARK H PARENT 12 2 12 3 5 10 6 13 30 16 8 18 9 19 1 22 1 23 1 24 3 26 3 27
REMARK H PARENT 3 28 13 32 28 35 15 36 26 37 29 39 17 44 18 47 23 51 21 53
REMARK H PARENT 21 54 27 56
REMARK Flexibility Score: inf
ROOT
ATOM      1  C   UNL     1     -48.283  31.689  24.680  1.00  0.00     0.117 C 
ATOM      2  H   UNL     1     -48.899  32.583  24.526  1.00  0.00     0.073 H 
ATOM      3  H   UNL     1     -48.956  30.849  24.896  1.00  0.00     0.073 H 
ENDROOT
BRANCH   1   4
ATOM      4  O   UNL     1     -47.408  31.991  25.782  1.00  0.00    -0.491 OA
BRANCH   4   5
ATOM      5  C   UNL     1     -47.649  33.241  26.278  1.00  0.00     0.121 A 
ATOM      6  C   UNL     1     -45.957  37.258  28.177  1.00  0.00     0.128 A 
ATOM      7  C   UNL     1     -47.238  37.800  28.250  1.00  0.00    -0.019 A 
ATOM      8  N   UNL     1     -45.760  36.031  27.646  1.00  0.00    -0.231 NA
ATOM      9  C   UNL     1     -48.332  37.062  27.802  1.00  0.00    -0.049 A 
ATOM     10  H   UNL     1     -47.390  38.804  28.630  1.00  0.00     0.066 H 
ATOM     11  C   UNL     1     -46.808  35.310  27.211  1.00  0.00     0.076 A 
ATOM     12  C   UNL     1     -48.131  35.784  27.277  1.00  0.00     0.001 A 
ATOM     13  H   UNL     1     -49.326  37.493  27.862  1.00  0.00     0.063 H 
ATOM     14  C   UNL     1     -46.588  34.045  26.689  1.00  0.00     0.007 A 
ATOM     15  C   UNL     1     -49.199  34.988  26.821  1.00  0.00    -0.049 A 
ATOM     16  H   UNL     1     -45.568  33.678  26.616  1.00  0.00     0.069 H 
ATOM     17  C   UNL     1     -48.955  33.713  26.317  1.00  0.00    -0.019 A 
ATOM     18  H   UNL     1     -50.220  35.360  26.858  1.00  0.00     0.063 H 
ATOM     19  H   UNL     1     -49.774  33.096  25.962  1.00  0.00     0.066 H 
BRANCH   6  20
ATOM     20  N   UNL     1     -44.850  38.007  28.633  1.00  0.00    -0.363 N 
BRANCH  20  21
ATOM     21  C   UNL     1     -44.684  37.936  30.088  1.00  0.00     0.008 C 
ATOM     22  H   UNL     1     -45.527  38.392  30.619  1.00  0.00     0.046 H 
ATOM     23  H   UNL     1     -44.557  36.900  30.424  1.00  0.00     0.046 H 
ATOM     24  H   UNL     1     -43.776  38.472  30.383  1.00  0.00     0.046 H 
ENDBRANCH  20  21
BRANCH  20  25
ATOM     25  C   UNL     1     -44.831  39.370  28.102  1.00  0.00     0.008 C 
ATOM     26  H   UNL     1     -45.658  39.967  28.504  1.00  0.00     0.046 H 
ATOM     27  H   UNL     1     -43.894  39.868  28.378  1.00  0.00     0.046 H 
ATOM     28  H   UNL     1     -44.879  39.385  27.008  1.00  0.00     0.046 H 
ENDBRANCH  20  25
ENDBRANCH   6  20
ENDBRANCH   4   5
ENDBRANCH   1   4
BRANCH   1  29
ATOM     29  C   UNL     1     -47.442  31.413  23.426  1.00  0.00     0.123 C 
ATOM     30  O   UNL     1     -46.479  30.371  23.717  1.00  0.00    -0.345 OA
ATOM     31  C   UNL     1     -48.288  30.903  22.261  1.00  0.00     0.114 C 
ATOM     32  H   UNL     1     -46.869  32.306  23.152  1.00  0.00     0.067 H 
ATOM     33  C   UNL     1     -46.804  29.205  22.920  1.00  0.00     0.164 C 
ATOM     34  C   UNL     1     -48.248  29.396  22.450  1.00  0.00     0.128 C 
ATOM     35  H   UNL     1     -49.304  31.308  22.220  1.00  0.00     0.066 H 
ATOM     36  H   UNL     1     -46.103  29.175  22.078  1.00  0.00     0.088 H 
ATOM     37  H   UNL     1     -48.965  29.090  23.222  1.00  0.00     0.068 H 
BRANCH  31  38
ATOM     38  O   UNL     1     -47.660  31.199  21.000  1.00  0.00    -0.387 OA
ATOM     39  H   UNL     1     -48.234  31.825  20.520  1.00  0.00     0.211 HD
ENDBRANCH  31  38
BRANCH  33  40
ATOM     40  N   UNL     1     -46.607  28.008  23.721  1.00  0.00    -0.303 N 
ATOM     41  C   UNL     1     -45.542  27.139  23.642  1.00  0.00     0.009 A 
ATOM     42  C   UNL     1     -47.476  27.573  24.694  1.00  0.00     0.147 A 
ATOM     43  C   UNL     1     -45.748  26.126  24.554  1.00  0.00    -0.031 A 
ATOM     44  H   UNL     1     -44.742  27.293  22.933  1.00  0.00     0.082 H 
ATOM     45  C   UNL     1     -46.967  26.398  25.231  1.00  0.00     0.061 A 
ATOM     46  N   UNL     1     -48.619  28.180  25.056  1.00  0.00    -0.218 NA
ATOM     47  H   UNL     1     -45.094  25.277  24.704  1.00  0.00     0.065 H 
ATOM     48  C   UNL     1     -47.720  25.787  26.243  1.00  0.00     0.136 A 
ATOM     49  C   UNL     1     -49.251  27.506  26.030  1.00  0.00     0.120 A 
ATOM     50  N   UNL     1     -48.871  26.364  26.639  1.00  0.00    -0.219 NA
ATOM     51  H   UNL     1     -50.187  27.935  26.375  1.00  0.00     0.106 H 
BRANCH  48  52
ATOM     52  N   UNL     1     -47.338  24.619  26.890  1.00  0.00    -0.383 N 
ATOM     53  H   UNL     1     -47.053  24.826  27.840  1.00  0.00     0.158 HD
ATOM     54  H   UNL     1     -46.713  24.035  26.352  1.00  0.00     0.158 HD
ENDBRANCH  48  52
ENDBRANCH  33  40
BRANCH  34  55
ATOM     55  O   UNL     1     -48.575  28.721  21.239  1.00  0.00    -0.386 OA
ATOM     56  H   UNL     1     -49.484  29.010  21.014  1.00  0.00     0.211 HD
ENDBRANCH  34  55
ENDBRANCH   1  29
TORSDOF 10
ENDMDL
MODEL 4
REMARK VINA RESULT:      -9.1      4.707     10.886
REMARK SMILES CN(C)c1ccc2ccc(OC[C@H]3O[C@@H](n4ccc5c(N)ncnc54)[C@H](O)[C@@H]3O)cc2n1
REMARK SMILES IDX 12 1 11 4 10 5 4 6 5 7 32 8 6 9 31 11 7 12 30 14 8 15 9 17
REMARK SMILES IDX 2 20 1 21 3 25 13 29 14 30 28 31 15 33 26 34 29 38 16 40
REMARK SMILES IDX 17 41 25 42 18 43 19 45 24 46 20 48 23 49 22 50 21 52 27 55
REMARK H PARENT 12 2 12 3 5 10 6 13 30 16 8 18 9 19 1 22 1 23 1 24 3 26 3 27
REMARK H PARENT 3 28 13 32 28 35 15 36 26 37 29 39 17 44 18 47 23 51 21 53
REMARK H PARENT 21 54 27 56
REMARK Flexibility Score: inf
ROOT
ATOM      1  C   UNL     1     -48.815  31.617  24.402  1.00  0.00     0.117 C 
ATOM      2  H   UNL     1     -49.314  32.587  24.300  1.00  0.00     0.073 H 
ATOM      3  H   UNL     1     -49.592  30.844  24.474  1.00  0.00     0.073 H 
ENDROOT
BRANCH   1   4
ATOM      4  O   UNL     1     -48.012  31.702  25.593  1.00  0.00    -0.491 OA
BRANCH   4   5
ATOM      5  C   UNL     1     -47.792  33.003  25.950  1.00  0.00     0.121 A 
ATOM      6  C   UNL     1     -49.470  37.050  27.795  1.00  0.00     0.128 A 
ATOM      7  C   UNL     1     -48.239  37.679  27.614  1.00  0.00    -0.019 A 
ATOM      8  N   UNL     1     -49.632  35.751  27.461  1.00  0.00    -0.231 NA
ATOM      9  C   UNL     1     -47.175  36.976  27.055  1.00  0.00    -0.049 A 
ATOM     10  H   UNL     1     -48.095  38.707  27.929  1.00  0.00     0.066 H 
ATOM     11  C   UNL     1     -48.612  35.063  26.920  1.00  0.00     0.076 A 
ATOM     12  C   UNL     1     -47.350  35.641  26.686  1.00  0.00     0.001 A 
ATOM     13  H   UNL     1     -46.220  37.474  26.919  1.00  0.00     0.063 H 
ATOM     14  C   UNL     1     -48.804  33.738  26.564  1.00  0.00     0.007 A 
ATOM     15  C   UNL     1     -46.314  34.885  26.106  1.00  0.00    -0.049 A 
ATOM     16  H   UNL     1     -49.769  33.277  26.759  1.00  0.00     0.069 H 
ATOM     17  C   UNL     1     -46.537  33.559  25.739  1.00  0.00    -0.019 A 
ATOM     18  H   UNL     1     -45.335  35.326  25.938  1.00  0.00     0.063 H 
ATOM     19  H   UNL     1     -45.742  32.971  25.293  1.00  0.00     0.066 H 
BRANCH   6  20
ATOM     20  N   UNL     1     -50.548  37.766  28.361  1.00  0.00    -0.363 N 
BRANCH  20  21
ATOM     21  C   UNL     1     -51.851  37.205  27.992  1.00  0.00     0.008 C 
ATOM     22  H   UNL     1     -51.817  36.112  27.908  1.00  0.00     0.046 H 
ATOM     23  H   UNL     1     -52.626  37.492  28.712  1.00  0.00     0.046 H 
ATOM     24  H   UNL     1     -52.164  37.604  27.022  1.00  0.00     0.046 H 
ENDBRANCH  20  21
BRANCH  20  25
ATOM     25  C   UNL     1     -50.444  39.209  28.146  1.00  0.00     0.008 C 
ATOM     26  H   UNL     1     -50.944  39.513  27.218  1.00  0.00     0.046 H 
ATOM     27  H   UNL     1     -50.919  39.748  28.975  1.00  0.00     0.046 H 
ATOM     28  H   UNL     1     -49.402  39.546  28.117  1.00  0.00     0.046 H 
ENDBRANCH  20  25
ENDBRANCH   6  20
ENDBRANCH   4   5
ENDBRANCH   1   4
BRANCH   1  29
ATOM     29  C   UNL     1     -47.903  31.369  23.192  1.00  0.00     0.123 C 
ATOM     30  O   UNL     1     -46.868  30.424  23.560  1.00  0.00    -0.345 OA
ATOM     31  C   UNL     1     -48.655  30.747  22.017  1.00  0.00     0.114 C 
ATOM     32  H   UNL     1     -47.397  32.298  22.906  1.00  0.00     0.067 H 
ATOM     33  C   UNL     1     -47.061  29.208  22.797  1.00  0.00     0.164 C 
ATOM     34  C   UNL     1     -48.496  29.257  22.266  1.00  0.00     0.128 C 
ATOM     35  H   UNL     1     -49.699  31.061  21.923  1.00  0.00     0.066 H 
ATOM     36  H   UNL     1     -46.326  29.208  21.983  1.00  0.00     0.088 H 
ATOM     37  H   UNL     1     -49.214  28.918  23.022  1.00  0.00     0.068 H 
BRANCH  31  38
ATOM     38  O   UNL     1     -48.004  31.051  20.770  1.00  0.00    -0.387 OA
ATOM     39  H   UNL     1     -48.193  30.325  20.148  1.00  0.00     0.211 HD
ENDBRANCH  31  38
BRANCH  33  40
ATOM     40  N   UNL     1     -46.796  28.062  23.651  1.00  0.00    -0.303 N 
ATOM     41  C   UNL     1     -45.657  27.289  23.649  1.00  0.00     0.009 A 
ATOM     42  C   UNL     1     -47.666  27.585  24.603  1.00  0.00     0.147 A 
ATOM     43  C   UNL     1     -45.814  26.293  24.590  1.00  0.00    -0.031 A 
ATOM     44  H   UNL     1     -44.843  27.489  22.968  1.00  0.00     0.082 H 
ATOM     45  C   UNL     1     -47.081  26.479  25.205  1.00  0.00     0.061 A 
ATOM     46  N   UNL     1     -48.873  28.100  24.893  1.00  0.00    -0.218 NA
ATOM     47  H   UNL     1     -45.096  25.511  24.800  1.00  0.00     0.065 H 
ATOM     48  C   UNL     1     -47.823  25.839  26.207  1.00  0.00     0.136 A 
ATOM     49  C   UNL     1     -49.486  27.406  25.866  1.00  0.00     0.120 A 
ATOM     50  N   UNL     1     -49.036  26.325  26.533  1.00  0.00    -0.219 NA
ATOM     51  H   UNL     1     -50.471  27.762  26.155  1.00  0.00     0.106 H 
BRANCH  48  52
ATOM     52  N   UNL     1     -47.369  24.732  26.915  1.00  0.00    -0.383 N 
ATOM     53  H   UNL     1     -47.294  23.932  26.297  1.00  0.00     0.158 HD
ATOM     54  H   UNL     1     -47.849  24.578  27.791  1.00  0.00     0.158 HD
ENDBRANCH  48  52
ENDBRANCH  33  40
BRANCH  34  55
ATOM     55  O   UNL     1     -48.715  28.513  21.071  1.00  0.00    -0.386 OA
ATOM     56  H   UNL     1     -47.972  28.746  20.476  1.00  0.00     0.211 HD
ENDBRANCH  34  55
ENDBRANCH   1  29
TORSDOF 10
ENDMDL
MODEL 5
REMARK VINA RESULT:      -9.0      3.164     11.160
REMARK SMILES CN(C)c1ccc2ccc(OC[C@H]3O[C@@H](n4ccc5c(N)ncnc54)[C@H](O)[C@@H]3O)cc2n1
REMARK SMILES IDX 12 1 11 4 10 5 4 6 5 7 32 8 6 9 31 11 7 12 30 14 8 15 9 17
REMARK SMILES IDX 2 20 1 21 3 25 13 29 14 30 28 31 15 33 26 34 29 38 16 40
REMARK SMILES IDX 17 41 25 42 18 43 19 45 24 46 20 48 23 49 22 50 21 52 27 55
REMARK H PARENT 12 2 12 3 5 10 6 13 30 16 8 18 9 19 1 22 1 23 1 24 3 26 3 27
REMARK H PARENT 3 28 13 32 28 35 15 36 26 37 29 39 17 44 18 47 23 51 21 53
REMARK H PARENT 21 54 27 56
REMARK Flexibility Score: inf
ROOT
ATOM      1  C   UNL     1     -46.801  32.406  23.832  1.00  0.00     0.117 C 
ATOM      2  H   UNL     1     -46.394  33.285  23.321  1.00  0.00     0.073 H 
ATOM      3  H   UNL     1     -47.892  32.417  23.703  1.00  0.00     0.073 H 
ENDROOT
BRANCH   1   4
ATOM      4  O   UNL     1     -46.409  32.526  25.212  1.00  0.00    -0.491 OA
BRANCH   4   5
ATOM      5  C   UNL     1     -47.085  33.541  25.831  1.00  0.00     0.121 A 
ATOM      6  C   UNL     1     -47.069  37.960  27.583  1.00  0.00     0.128 A 
ATOM      7  C   UNL     1     -48.402  37.845  27.969  1.00  0.00    -0.019 A 
ATOM      8  N   UNL     1     -46.450  36.945  26.941  1.00  0.00    -0.231 NA
ATOM      9  C   UNL     1     -49.099  36.664  27.721  1.00  0.00    -0.049 A 
ATOM     10  H   UNL     1     -48.913  38.678  28.440  1.00  0.00     0.066 H 
ATOM     11  C   UNL     1     -47.113  35.801  26.697  1.00  0.00     0.076 A 
ATOM     12  C   UNL     1     -48.453  35.606  27.080  1.00  0.00     0.001 A 
ATOM     13  H   UNL     1     -50.138  36.585  28.025  1.00  0.00     0.063 H 
ATOM     14  C   UNL     1     -46.455  34.763  26.055  1.00  0.00     0.007 A 
ATOM     15  C   UNL     1     -49.102  34.386  26.814  1.00  0.00    -0.049 A 
ATOM     16  H   UNL     1     -45.426  34.910  25.738  1.00  0.00     0.069 H 
ATOM     17  C   UNL     1     -48.414  33.350  26.185  1.00  0.00    -0.019 A 
ATOM     18  H   UNL     1     -50.141  34.240  27.097  1.00  0.00     0.063 H 
ATOM     19  H   UNL     1     -48.910  32.408  25.975  1.00  0.00     0.066 H 
BRANCH   6  20
ATOM     20  N   UNL     1     -46.364  39.158  27.838  1.00  0.00    -0.363 N 
BRANCH  20  21
ATOM     21  C   UNL     1     -46.792  40.258  26.969  1.00  0.00     0.008 C 
ATOM     22  H   UNL     1     -45.970  40.632  26.348  1.00  0.00     0.046 H 
ATOM     23  H   UNL     1     -47.628  39.956  26.326  1.00  0.00     0.046 H 
ATOM     24  H   UNL     1     -47.154  41.091  27.579  1.00  0.00     0.046 H 
ENDBRANCH  20  21
BRANCH  20  25
ATOM     25  C   UNL     1     -44.916  38.965  27.878  1.00  0.00     0.008 C 
ATOM     26  H   UNL     1     -44.561  38.803  28.903  1.00  0.00     0.046 H 
ATOM     27  H   UNL     1     -44.636  38.086  27.284  1.00  0.00     0.046 H 
ATOM     28  H   UNL     1     -44.376  39.814  27.444  1.00  0.00     0.046 H 
ENDBRANCH  20  25
ENDBRANCH   6  20
ENDBRANCH   4   5
ENDBRANCH   1   4
BRANCH   1  29
ATOM     29  C   UNL     1     -46.189  31.129  23.240  1.00  0.00     0.123 C 
ATOM     30  O   UNL     1     -46.701  29.978  23.957  1.00  0.00    -0.345 OA
ATOM     31  C   UNL     1     -46.572  30.927  21.776  1.00  0.00     0.114 C 
ATOM     32  H   UNL     1     -45.102  31.132  23.381  1.00  0.00     0.067 H 
ATOM     33  C   UNL     1     -47.509  29.190  23.049  1.00  0.00     0.164 C 
ATOM     34  C   UNL     1     -47.846  30.106  21.869  1.00  0.00     0.128 C 
ATOM     35  H   UNL     1     -46.692  31.851  21.202  1.00  0.00     0.066 H 
ATOM     36  H   UNL     1     -46.910  28.328  22.736  1.00  0.00     0.088 H 
ATOM     37  H   UNL     1     -48.701  30.754  22.097  1.00  0.00     0.068 H 
BRANCH  31  38
ATOM     38  O   UNL     1     -45.588  30.127  21.092  1.00  0.00    -0.387 OA
ATOM     39  H   UNL     1     -46.038  29.339  20.737  1.00  0.00     0.211 HD
ENDBRANCH  31  38
BRANCH  33  40
ATOM     40  N   UNL     1     -48.681  28.699  23.757  1.00  0.00    -0.303 N 
ATOM     41  C   UNL     1     -49.953  29.220  23.688  1.00  0.00     0.009 A 
ATOM     42  C   UNL     1     -48.678  27.619  24.607  1.00  0.00     0.147 A 
ATOM     43  C   UNL     1     -50.763  28.482  24.524  1.00  0.00    -0.031 A 
ATOM     44  H   UNL     1     -50.175  30.082  23.077  1.00  0.00     0.082 H 
ATOM     45  C   UNL     1     -49.965  27.459  25.104  1.00  0.00     0.061 A 
ATOM     46  N   UNL     1     -47.613  26.856  24.906  1.00  0.00    -0.218 NA
ATOM     47  H   UNL     1     -51.814  28.670  24.705  1.00  0.00     0.065 H 
ATOM     48  C   UNL     1     -50.169  26.405  26.005  1.00  0.00     0.136 A 
ATOM     49  C   UNL     1     -47.930  25.882  25.774  1.00  0.00     0.120 A 
ATOM     50  N   UNL     1     -49.129  25.613  26.329  1.00  0.00    -0.219 NA
ATOM     51  H   UNL     1     -47.117  25.223  26.067  1.00  0.00     0.106 H 
BRANCH  48  52
ATOM     52  N   UNL     1     -51.399  26.105  26.575  1.00  0.00    -0.383 N 
ATOM     53  H   UNL     1     -51.757  25.238  26.192  1.00  0.00     0.158 HD
ATOM     54  H   UNL     1     -52.043  26.884  26.599  1.00  0.00     0.158 HD
ENDBRANCH  48  52
ENDBRANCH  33  40
BRANCH  34  55
ATOM     55  O   UNL     1     -48.108  29.428  20.645  1.00  0.00    -0.386 OA
ATOM     56  H   UNL     1     -48.748  29.992  20.164  1.00  0.00     0.211 HD
ENDBRANCH  34  55
ENDBRANCH   1  29
TORSDOF 10
ENDMDL
MODEL 6
REMARK VINA RESULT:      -8.8      3.723     11.282
REMARK SMILES CN(C)c1ccc2ccc(OC[C@H]3O[C@@H](n4ccc5c(N)ncnc54)[C@H](O)[C@@H]3O)cc2n1
REMARK SMILES IDX 12 1 11 4 10 5 4 6 5 7 32 8 6 9 31 11 7 12 30 14 8 15 9 17
REMARK SMILES IDX 2 20 1 21 3 25 13 29 14 30 28 31 15 33 26 34 29 38 16 40
REMARK SMILES IDX 17 41 25 42 18 43 19 45 24 46 20 48 23 49 22 50 21 52 27 55
REMARK H PARENT 12 2 12 3 5 10 6 13 30 16 8 18 9 19 1 22 1 23 1 24 3 26 3 27
REMARK H PARENT 3 28 13 32 28 35 15 36 26 37 29 39 17 44 18 47 23 51 21 53
REMARK H PARENT 21 54 27 56
REMARK Flexibility Score: inf
ROOT
ATOM      1  C   UNL     1     -46.184  31.404  23.402  1.00  0.00     0.117 C 
ATOM      2  H   UNL     1     -45.110  31.319  23.604  1.00  0.00     0.073 H 
ATOM      3  H   UNL     1     -46.389  32.440  23.101  1.00  0.00     0.073 H 
ENDROOT
BRANCH   1   4
ATOM      4  O   UNL     1     -46.852  31.043  24.624  1.00  0.00    -0.491 OA
BRANCH   4   5
ATOM      5  C   UNL     1     -47.361  32.145  25.254  1.00  0.00     0.121 A 
ATOM      6  C   UNL     1     -46.615  36.398  27.242  1.00  0.00     0.128 A 
ATOM      7  C   UNL     1     -47.970  36.534  27.534  1.00  0.00    -0.019 A 
ATOM      8  N   UNL     1     -46.160  35.307  26.586  1.00  0.00    -0.231 NA
ATOM      9  C   UNL     1     -48.863  35.526  27.177  1.00  0.00    -0.049 A 
ATOM     10  H   UNL     1     -48.342  37.431  28.016  1.00  0.00     0.066 H 
ATOM     11  C   UNL     1     -47.012  34.328  26.238  1.00  0.00     0.076 A 
ATOM     12  C   UNL     1     -48.390  34.387  26.522  1.00  0.00     0.001 A 
ATOM     13  H   UNL     1     -49.917  35.641  27.408  1.00  0.00     0.063 H 
ATOM     14  C   UNL     1     -46.524  33.208  25.584  1.00  0.00     0.007 A 
ATOM     15  C   UNL     1     -49.242  33.332  26.149  1.00  0.00    -0.049 A 
ATOM     16  H   UNL     1     -45.465  33.161  25.343  1.00  0.00     0.069 H 
ATOM     17  C   UNL     1     -48.725  32.207  25.510  1.00  0.00    -0.019 A 
ATOM     18  H   UNL     1     -50.308  33.384  26.355  1.00  0.00     0.063 H 
ATOM     19  H   UNL     1     -49.378  31.392  25.217  1.00  0.00     0.066 H 
BRANCH   6  20
ATOM     20  N   UNL     1     -45.712  37.421  27.607  1.00  0.00    -0.363 N 
BRANCH  20  21
ATOM     21  C   UNL     1     -45.112  37.198  28.926  1.00  0.00     0.008 C 
ATOM     22  H   UNL     1     -44.457  38.026  29.223  1.00  0.00     0.046 H 
ATOM     23  H   UNL     1     -45.881  37.047  29.693  1.00  0.00     0.046 H 
ATOM     24  H   UNL     1     -44.508  36.285  28.908  1.00  0.00     0.046 H 
ENDBRANCH  20  21
BRANCH  20  25
ATOM     25  C   UNL     1     -46.271  38.760  27.431  1.00  0.00     0.008 C 
ATOM     26  H   UNL     1     -45.625  39.526  27.876  1.00  0.00     0.046 H 
ATOM     27  H   UNL     1     -46.374  38.988  26.363  1.00  0.00     0.046 H 
ATOM     28  H   UNL     1     -47.275  38.846  27.863  1.00  0.00     0.046 H 
ENDBRANCH  20  25
ENDBRANCH   6  20
ENDBRANCH   4   5
ENDBRANCH   1   4
BRANCH   1  29
ATOM     29  C   UNL     1     -46.586  30.420  22.294  1.00  0.00     0.123 C 
ATOM     30  O   UNL     1     -46.862  29.125  22.884  1.00  0.00    -0.345 OA
ATOM     31  C   UNL     1     -47.865  30.846  21.576  1.00  0.00     0.114 C 
ATOM     32  H   UNL     1     -45.754  30.279  21.595  1.00  0.00     0.067 H 
ATOM     33  C   UNL     1     -48.269  28.829  22.711  1.00  0.00     0.164 C 
ATOM     34  C   UNL     1     -48.952  30.161  22.387  1.00  0.00     0.128 C 
ATOM     35  H   UNL     1     -48.004  31.927  21.491  1.00  0.00     0.066 H 
ATOM     36  H   UNL     1     -48.358  28.115  21.884  1.00  0.00     0.088 H 
ATOM     37  H   UNL     1     -49.165  30.733  23.297  1.00  0.00     0.068 H 
BRANCH  31  38
ATOM     38  O   UNL     1     -47.911  30.304  20.243  1.00  0.00    -0.387 OA
ATOM     39  H   UNL     1     -48.842  30.101  20.034  1.00  0.00     0.211 HD
ENDBRANCH  31  38
BRANCH  33  40
ATOM     40  N   UNL     1     -48.776  28.195  23.918  1.00  0.00    -0.303 N 
ATOM     41  C   UNL     1     -48.069  27.964  25.076  1.00  0.00     0.009 A 
ATOM     42  C   UNL     1     -50.062  27.733  24.071  1.00  0.00     0.147 A 
ATOM     43  C   UNL     1     -48.904  27.324  25.967  1.00  0.00    -0.031 A 
ATOM     44  H   UNL     1     -47.030  28.246  25.166  1.00  0.00     0.082 H 
ATOM     45  C   UNL     1     -50.172  27.182  25.341  1.00  0.00     0.061 A 
ATOM     46  N   UNL     1     -51.037  27.802  23.149  1.00  0.00    -0.218 NA
ATOM     47  H   UNL     1     -48.624  26.986  26.956  1.00  0.00     0.065 H 
ATOM     48  C   UNL     1     -51.418  26.643  25.690  1.00  0.00     0.136 A 
ATOM     49  C   UNL     1     -52.180  27.257  23.597  1.00  0.00     0.120 A 
ATOM     50  N   UNL     1     -52.425  26.695  24.797  1.00  0.00    -0.219 NA
ATOM     51  H   UNL     1     -53.017  27.273  22.904  1.00  0.00     0.106 H 
BRANCH  48  52
ATOM     52  N   UNL     1     -51.692  26.072  26.927  1.00  0.00    -0.383 N 
ATOM     53  H   UNL     1     -51.988  25.111  26.807  1.00  0.00     0.158 HD
ATOM     54  H   UNL     1     -52.267  26.647  27.527  1.00  0.00     0.158 HD
ENDBRANCH  48  52
ENDBRANCH  33  40
BRANCH  34  55
ATOM     55  O   UNL     1     -50.155  30.046  21.634  1.00  0.00    -0.386 OA
ATOM     56  H   UNL     1     -49.974  29.368  20.950  1.00  0.00     0.211 HD
ENDBRANCH  34  55
ENDBRANCH   1  29
TORSDOF 10
ENDMDL
MODEL 7
REMARK VINA RESULT:      -8.8      1.581      2.414
REMARK SMILES CN(C)c1ccc2ccc(OC[C@H]3O[C@@H](n4ccc5c(N)ncnc54)[C@H](O)[C@@H]3O)cc2n1
REMARK SMILES IDX 12 1 11 4 10 5 4 6 5 7 32 8 6 9 31 11 7 12 30 14 8 15 9 17
REMARK SMILES IDX 2 20 1 21 3 25 13 29 14 30 28 31 15 33 26 34 29 38 16 40
REMARK SMILES IDX 17 41 25 42 18 43 19 45 24 46 20 48 23 49 22 50 21 52 27 55
REMARK H PARENT 12 2 12 3 5 10 6 13 30 16 8 18 9 19 1 22 1 23 1 24 3 26 3 27
REMARK H PARENT 3 28 13 32 28 35 15 36 26 37 29 39 17 44 18 47 23 51 21 53
REMARK H PARENT 21 54 27 56
REMARK Flexibility Score: inf
ROOT
ATOM      1  C   UNL     1     -47.901  36.007  27.094  1.00  0.00     0.117 C 
ATOM      2  H   UNL     1     -48.580  36.767  27.497  1.00  0.00     0.073 H 
ATOM      3  H   UNL     1     -47.630  36.305  26.072  1.00  0.00     0.073 H 
ENDROOT
BRANCH   1   4
ATOM      4  O   UNL     1     -48.623  34.763  27.131  1.00  0.00    -0.491 OA
BRANCH   4   5
ATOM      5  C   UNL     1     -48.073  33.846  26.279  1.00  0.00     0.121 A 
ATOM      6  C   UNL     1     -48.312  29.580  24.193  1.00  0.00     0.128 A 
ATOM      7  C   UNL     1     -47.116  29.810  23.517  1.00  0.00    -0.019 A 
ATOM      8  N   UNL     1     -48.838  30.530  24.999  1.00  0.00    -0.231 NA
ATOM      9  C   UNL     1     -46.437  31.014  23.693  1.00  0.00    -0.049 A 
ATOM     10  H   UNL     1     -46.719  29.068  22.832  1.00  0.00     0.066 H 
ATOM     11  C   UNL     1     -48.191  31.695  25.176  1.00  0.00     0.076 A 
ATOM     12  C   UNL     1     -46.968  31.985  24.544  1.00  0.00     0.001 A 
ATOM     13  H   UNL     1     -45.507  31.184  23.161  1.00  0.00     0.063 H 
ATOM     14  C   UNL     1     -48.736  32.648  26.022  1.00  0.00     0.007 A 
ATOM     15  C   UNL     1     -46.321  33.214  24.770  1.00  0.00    -0.049 A 
ATOM     16  H   UNL     1     -49.691  32.441  26.500  1.00  0.00     0.069 H 
ATOM     17  C   UNL     1     -46.878  34.148  25.640  1.00  0.00    -0.019 A 
ATOM     18  H   UNL     1     -45.382  33.444  24.271  1.00  0.00     0.063 H 
ATOM     19  H   UNL     1     -46.385  35.099  25.816  1.00  0.00     0.066 H 
BRANCH   6  20
ATOM     20  N   UNL     1     -48.996  28.358  24.015  1.00  0.00    -0.363 N 
BRANCH  20  21
ATOM     21  C   UNL     1     -50.425  28.463  24.325  1.00  0.00     0.008 C 
ATOM     22  H   UNL     1     -50.597  28.795  25.356  1.00  0.00     0.046 H 
ATOM     23  H   UNL     1     -50.934  29.143  23.632  1.00  0.00     0.046 H 
ATOM     24  H   UNL     1     -50.902  27.484  24.206  1.00  0.00     0.046 H 
ENDBRANCH  20  21
BRANCH  20  25
ATOM     25  C   UNL     1     -48.330  27.234  24.671  1.00  0.00     0.008 C 
ATOM     26  H   UNL     1     -47.241  27.364  24.679  1.00  0.00     0.046 H 
ATOM     27  H   UNL     1     -48.665  27.154  25.712  1.00  0.00     0.046 H 
ATOM     28  H   UNL     1     -48.572  26.278  24.195  1.00  0.00     0.046 H 
ENDBRANCH  20  25
ENDBRANCH   6  20
ENDBRANCH   4   5
ENDBRANCH   1   4
BRANCH   1  29
ATOM     29  C   UNL     1     -46.655  35.897  27.984  1.00  0.00     0.123 C 
ATOM     30  O   UNL     1     -45.634  36.798  27.489  1.00  0.00    -0.345 OA
ATOM     31  C   UNL     1     -46.934  36.314  29.426  1.00  0.00     0.114 C 
ATOM     32  H   UNL     1     -46.239  34.884  27.926  1.00  0.00     0.067 H 
ATOM     33  C   UNL     1     -45.409  37.830  28.481  1.00  0.00     0.164 C 
ATOM     34  C   UNL     1     -46.622  37.801  29.414  1.00  0.00     0.128 C 
ATOM     35  H   UNL     1     -47.943  36.086  29.783  1.00  0.00     0.066 H 
ATOM     36  H   UNL     1     -44.482  37.583  29.011  1.00  0.00     0.088 H 
ATOM     37  H   UNL     1     -47.465  38.363  28.993  1.00  0.00     0.068 H 
BRANCH  31  38
ATOM     38  O   UNL     1     -46.010  35.684  30.333  1.00  0.00    -0.387 OA
ATOM     39  H   UNL     1     -45.946  36.241  31.130  1.00  0.00     0.211 HD
ENDBRANCH  31  38
BRANCH  33  40
ATOM     40  N   UNL     1     -45.223  39.105  27.808  1.00  0.00    -0.303 N 
ATOM     41  C   UNL     1     -44.020  39.703  27.510  1.00  0.00     0.009 A 
ATOM     42  C   UNL     1     -46.250  39.905  27.363  1.00  0.00     0.147 A 
ATOM     43  C   UNL     1     -44.281  40.909  26.894  1.00  0.00    -0.031 A 
ATOM     44  H   UNL     1     -43.081  39.242  27.779  1.00  0.00     0.082 H 
ATOM     45  C   UNL     1     -45.692  41.040  26.789  1.00  0.00     0.061 A 
ATOM     46  N   UNL     1     -47.561  39.634  27.471  1.00  0.00    -0.218 NA
ATOM     47  H   UNL     1     -43.534  41.620  26.567  1.00  0.00     0.065 H 
ATOM     48  C   UNL     1     -46.584  41.993  26.278  1.00  0.00     0.136 A 
ATOM     49  C   UNL     1     -48.314  40.615  26.948  1.00  0.00     0.120 A 
ATOM     50  N   UNL     1     -47.908  41.759  26.362  1.00  0.00    -0.219 NA
ATOM     51  H   UNL     1     -49.389  40.468  27.000  1.00  0.00     0.106 H 
BRANCH  48  52
ATOM     52  N   UNL     1     -46.184  43.171  25.660  1.00  0.00    -0.383 N 
ATOM     53  H   UNL     1     -45.198  43.123  25.428  1.00  0.00     0.158 HD
ATOM     54  H   UNL     1     -46.493  44.010  26.131  1.00  0.00     0.158 HD
ENDBRANCH  48  52
ENDBRANCH  33  40
BRANCH  34  55
ATOM     55  O   UNL     1     -46.373  38.282  30.731  1.00  0.00    -0.386 OA
ATOM     56  H   UNL     1     -46.795  37.633  31.332  1.00  0.00     0.211 HD
ENDBRANCH  34  55
ENDBRANCH   1  29
TORSDOF 10
ENDMDL
