MODEL 1
REMARK VINA RESULT:     -10.1      0.000      0.000
REMARK SMILES CNc1ccc2ccc(OCc3cccc(-n4cc(CC5CC5)c5c(N)ncnc54)c3)cc2n1
REMARK SMILES IDX 11 1 10 4 9 5 3 6 4 7 34 8 5 9 33 11 6 12 32 14 7 15 8 17
REMARK SMILES IDX 2 20 1 22 12 26 13 27 31 28 14 29 16 31 15 33 17 36 18 37
REMARK SMILES IDX 30 38 19 39 24 41 29 42 25 43 28 44 27 45 20 47 21 50 22 51
REMARK SMILES IDX 23 52 26 58
REMARK H PARENT 11 2 11 3 4 10 5 13 32 16 7 18 8 19 2 21 1 23 1 24 1 25 13 30
REMARK H PARENT 31 32 14 34 15 35 18 40 28 46 20 48 20 49 21 53 22 54 22 55
REMARK H PARENT 23 56 23 57 26 59 26 60
REMARK Flexibility Score: inf
ROOT
ATOM      1  C   UNL     1     -48.360  34.950  27.091  1.00  0.00     0.113 C 
ATOM      2  H   UNL     1     -48.147  34.692  28.135  1.00  0.00     0.076 H 
ATOM      3  H   UNL     1     -49.444  35.022  26.936  1.00  0.00     0.076 H 
ENDROOT
BRANCH   1   4
ATOM      4  O   UNL     1     -47.725  36.190  26.777  1.00  0.00    -0.489 OA
BRANCH   4   5
ATOM      5  C   UNL     1     -46.837  36.689  27.690  1.00  0.00     0.122 A 
ATOM      6  C   UNL     1     -43.725  40.224  28.426  1.00  0.00     0.126 A 
ATOM      7  C   UNL     1     -43.395  39.731  29.682  1.00  0.00    -0.019 A 
ATOM      8  N   UNL     1     -44.627  39.603  27.639  1.00  0.00    -0.231 NA
ATOM      9  C   UNL     1     -44.020  38.582  30.152  1.00  0.00    -0.049 A 
ATOM     10  H   UNL     1     -42.645  40.230  30.289  1.00  0.00     0.066 H 
ATOM     11  C   UNL     1     -45.235  38.488  28.084  1.00  0.00     0.076 A 
ATOM     12  C   UNL     1     -44.963  37.936  29.349  1.00  0.00     0.001 A 
ATOM     13  H   UNL     1     -43.761  38.195  31.133  1.00  0.00     0.063 H 
ATOM     14  C   UNL     1     -46.170  37.849  27.280  1.00  0.00     0.007 A 
ATOM     15  C   UNL     1     -45.625  36.771  29.771  1.00  0.00    -0.049 A 
ATOM     16  H   UNL     1     -46.384  38.268  26.300  1.00  0.00     0.069 H 
ATOM     17  C   UNL     1     -46.561  36.150  28.942  1.00  0.00    -0.019 A 
ATOM     18  H   UNL     1     -45.413  36.341  30.748  1.00  0.00     0.063 H 
ATOM     19  H   UNL     1     -47.048  35.251  29.305  1.00  0.00     0.066 H 
BRANCH   6  20
ATOM     20  N   UNL     1     -43.053  41.376  27.974  1.00  0.00    -0.373 N 
ATOM     21  H   UNL     1     -42.624  41.173  27.076  1.00  0.00     0.161 HD
BRANCH  20  22
ATOM     22  C   UNL     1     -42.091  41.912  28.923  1.00  0.00     0.005 C 
ATOM     23  H   UNL     1     -41.653  41.083  29.490  1.00  0.00     0.045 H 
ATOM     24  H   UNL     1     -42.566  42.589  29.642  1.00  0.00     0.045 H 
ATOM     25  H   UNL     1     -41.269  42.429  28.416  1.00  0.00     0.045 H 
ENDBRANCH  20  22
ENDBRANCH   6  20
ENDBRANCH   4   5
ENDBRANCH   1   4
BRANCH   1  26
ATOM     26  C   UNL     1     -47.831  33.861  26.182  1.00  0.00    -0.009 A 
ATOM     27  C   UNL     1     -46.640  34.037  25.470  1.00  0.00    -0.055 A 
ATOM     28  C   UNL     1     -48.568  32.676  25.999  1.00  0.00    -0.031 A 
ATOM     29  C   UNL     1     -46.180  33.040  24.615  1.00  0.00    -0.060 A 
ATOM     30  H   UNL     1     -46.060  34.951  25.585  1.00  0.00     0.063 H 
ATOM     31  C   UNL     1     -48.119  31.663  25.139  1.00  0.00     0.047 A 
ATOM     32  H   UNL     1     -49.481  32.562  26.574  1.00  0.00     0.065 H 
ATOM     33  C   UNL     1     -46.910  31.860  24.451  1.00  0.00    -0.038 A 
ATOM     34  H   UNL     1     -45.250  33.183  24.069  1.00  0.00     0.062 H 
ATOM     35  H   UNL     1     -46.515  31.130  23.752  1.00  0.00     0.064 H 
BRANCH  31  36
ATOM     36  N   UNL     1     -48.867  30.448  24.958  1.00  0.00    -0.301 N 
ATOM     37  C   UNL     1     -48.497  29.213  25.464  1.00  0.00     0.015 A 
ATOM     38  C   UNL     1     -50.069  30.264  24.272  1.00  0.00     0.150 A 
ATOM     39  C   UNL     1     -49.438  28.254  25.133  1.00  0.00    -0.016 A 
ATOM     40  H   UNL     1     -47.612  29.097  26.071  1.00  0.00     0.083 H 
ATOM     41  C   UNL     1     -50.434  28.917  24.351  1.00  0.00     0.065 A 
ATOM     42  N   UNL     1     -50.763  31.212  23.608  1.00  0.00    -0.218 NA
ATOM     43  C   UNL     1     -51.624  28.549  23.696  1.00  0.00     0.136 A 
ATOM     44  C   UNL     1     -51.878  30.743  23.040  1.00  0.00     0.120 A 
ATOM     45  N   UNL     1     -52.338  29.485  23.045  1.00  0.00    -0.219 NA
ATOM     46  H   UNL     1     -52.484  31.468  22.506  1.00  0.00     0.106 H 
BRANCH  39  47
ATOM     47  C   UNL     1     -49.382  26.821  25.566  1.00  0.00    -0.023 C 
ATOM     48  H   UNL     1     -49.354  26.187  24.669  1.00  0.00     0.032 H 
ATOM     49  H   UNL     1     -50.303  26.541  26.083  1.00  0.00     0.032 H 
BRANCH  47  50
ATOM     50  C   UNL     1     -48.178  26.484  26.401  1.00  0.00    -0.037 C 
ATOM     51  C   UNL     1     -46.941  25.914  25.755  1.00  0.00    -0.050 C 
ATOM     52  C   UNL     1     -47.783  25.052  26.655  1.00  0.00    -0.050 C 
ATOM     53  H   UNL     1     -48.033  27.195  27.209  1.00  0.00     0.031 H 
ATOM     54  H   UNL     1     -46.954  25.699  24.694  1.00  0.00     0.027 H 
ATOM     55  H   UNL     1     -45.977  26.242  26.128  1.00  0.00     0.027 H 
ATOM     56  H   UNL     1     -48.366  24.258  26.202  1.00  0.00     0.027 H 
ATOM     57  H   UNL     1     -47.394  24.803  27.637  1.00  0.00     0.027 H 
ENDBRANCH  47  50
ENDBRANCH  39  47
BRANCH  43  58
ATOM     58  N   UNL     1     -52.132  27.258  23.630  1.00  0.00    -0.383 N 
ATOM     59  H   UNL     1     -51.516  26.686  23.061  1.00  0.00     0.158 HD
ATOM     60  H   UNL     1     -52.368  26.862  24.528  1.00  0.00     0.158 HD
ENDBRANCH  43  58
ENDBRANCH  31  36
ENDBRANCH   1  26
TORSDOF 9
ENDMDL
MODEL 2
REMARK VINA RESULT:      -9.9      3.144     11.831
REMARK SMILES CNc1ccc2ccc(OCc3cccc(-n4cc(CC5CC5)c5c(N)ncnc54)c3)cc2n1
REMARK SMILES IDX 11 1 10 4 9 5 3 6 4 7 34 8 5 9 33 11 6 12 32 14 7 15 8 17
REMARK SMILES IDX 2 20 1 22 12 26 13 27 31 28 14 29 16 31 15 33 17 36 18 37
REMARK SMILES IDX 30 38 19 39 24 41 29 42 25 43 28 44 27 45 20 47 21 50 22 51
REMARK SMILES IDX 23 52 26 58
REMARK H PARENT 11 2 11 3 4 10 5 13 32 16 7 18 8 19 2 21 1 23 1 24 1 25 13 30
REMARK H PARENT 31 32 14 34 15 35 18 40 28 46 20 48 20 49 21 53 22 54 22 55
REMARK H PARENT 23 56 23 57 26 59 26 60
REMARK Flexibility Score: inf
ROOT
ATOM      1  C   UNL     1     -46.252  34.587  26.996  1.00  0.00     0.113 C 
ATOM      2  H   UNL     1     -45.379  34.357  27.619  1.00  0.00     0.076 H 
ATOM      3  H   UNL     1     -45.975  34.558  25.935  1.00  0.00     0.076 H 
ENDROOT
BRANCH   1   4
ATOM      4  O   UNL     1     -47.284  33.639  27.272  1.00  0.00    -0.489 OA
BRANCH   4   5
ATOM      5  C   UNL     1     -47.779  32.925  26.215  1.00  0.00     0.122 A 
ATOM      6  C   UNL     1     -46.471  30.318  22.444  1.00  0.00     0.126 A 
ATOM      7  C   UNL     1     -47.795  30.103  22.078  1.00  0.00    -0.019 A 
ATOM      8  N   UNL     1     -46.149  31.059  23.524  1.00  0.00    -0.231 NA
ATOM      9  C   UNL     1     -48.815  30.647  22.851  1.00  0.00    -0.049 A 
ATOM     10  H   UNL     1     -48.033  29.528  21.190  1.00  0.00     0.066 H 
ATOM     11  C   UNL     1     -47.131  31.591  24.276  1.00  0.00     0.076 A 
ATOM     12  C   UNL     1     -48.492  31.408  23.977  1.00  0.00     0.001 A 
ATOM     13  H   UNL     1     -49.849  30.481  22.564  1.00  0.00     0.063 H 
ATOM     14  C   UNL     1     -46.804  32.350  25.393  1.00  0.00     0.007 A 
ATOM     15  C   UNL     1     -49.481  31.982  24.793  1.00  0.00    -0.049 A 
ATOM     16  H   UNL     1     -45.753  32.499  25.630  1.00  0.00     0.069 H 
ATOM     17  C   UNL     1     -49.124  32.739  25.911  1.00  0.00    -0.019 A 
ATOM     18  H   UNL     1     -50.535  31.844  24.561  1.00  0.00     0.063 H 
ATOM     19  H   UNL     1     -49.918  33.167  26.513  1.00  0.00     0.066 H 
BRANCH   6  20
ATOM     20  N   UNL     1     -45.466  29.773  21.624  1.00  0.00    -0.373 N 
ATOM     21  H   UNL     1     -45.902  29.332  20.820  1.00  0.00     0.161 HD
BRANCH  20  22
ATOM     22  C   UNL     1     -44.563  28.866  22.314  1.00  0.00     0.005 C 
ATOM     23  H   UNL     1     -45.154  28.170  22.918  1.00  0.00     0.045 H 
ATOM     24  H   UNL     1     -43.891  29.403  22.993  1.00  0.00     0.045 H 
ATOM     25  H   UNL     1     -43.976  28.268  21.609  1.00  0.00     0.045 H 
ENDBRANCH  20  22
ENDBRANCH   6  20
ENDBRANCH   4   5
ENDBRANCH   1   4
BRANCH   1  26
ATOM     26  C   UNL     1     -46.744  35.983  27.311  1.00  0.00    -0.009 A 
ATOM     27  C   UNL     1     -48.104  36.235  27.519  1.00  0.00    -0.055 A 
ATOM     28  C   UNL     1     -45.838  37.060  27.341  1.00  0.00    -0.031 A 
ATOM     29  C   UNL     1     -48.547  37.529  27.778  1.00  0.00    -0.060 A 
ATOM     30  H   UNL     1     -48.825  35.420  27.487  1.00  0.00     0.063 H 
ATOM     31  C   UNL     1     -46.268  38.369  27.598  1.00  0.00     0.047 A 
ATOM     32  H   UNL     1     -44.787  36.832  27.189  1.00  0.00     0.065 H 
ATOM     33  C   UNL     1     -47.638  38.589  27.821  1.00  0.00    -0.038 A 
ATOM     34  H   UNL     1     -49.606  37.715  27.943  1.00  0.00     0.062 H 
ATOM     35  H   UNL     1     -48.045  39.578  28.002  1.00  0.00     0.064 H 
BRANCH  31  36
ATOM     36  N   UNL     1     -45.341  39.469  27.637  1.00  0.00    -0.301 N 
ATOM     37  C   UNL     1     -45.351  40.540  26.760  1.00  0.00     0.015 A 
ATOM     38  C   UNL     1     -44.288  39.682  28.529  1.00  0.00     0.150 A 
ATOM     39  C   UNL     1     -44.345  41.434  27.078  1.00  0.00    -0.016 A 
ATOM     40  H   UNL     1     -46.102  40.628  25.989  1.00  0.00     0.083 H 
ATOM     41  C   UNL     1     -43.648  40.879  28.196  1.00  0.00     0.065 A 
ATOM     42  N   UNL     1     -43.914  38.862  29.535  1.00  0.00    -0.218 NA
ATOM     43  C   UNL     1     -42.545  41.244  28.991  1.00  0.00     0.136 A 
ATOM     44  C   UNL     1     -42.865  39.323  30.222  1.00  0.00     0.120 A 
ATOM     45  N   UNL     1     -42.171  40.448  30.009  1.00  0.00    -0.219 NA
ATOM     46  H   UNL     1     -42.532  38.710  31.053  1.00  0.00     0.106 H 
BRANCH  39  47
ATOM     47  C   UNL     1     -44.105  42.733  26.370  1.00  0.00    -0.023 C 
ATOM     48  H   UNL     1     -43.690  43.450  27.091  1.00  0.00     0.032 H 
ATOM     49  H   UNL     1     -45.051  43.173  26.045  1.00  0.00     0.032 H 
BRANCH  47  50
ATOM     50  C   UNL     1     -43.142  42.630  25.221  1.00  0.00    -0.037 C 
ATOM     51  C   UNL     1     -41.728  43.133  25.367  1.00  0.00    -0.050 C 
ATOM     52  C   UNL     1     -42.693  43.857  24.468  1.00  0.00    -0.050 C 
ATOM     53  H   UNL     1     -43.287  41.717  24.651  1.00  0.00     0.031 H 
ATOM     54  H   UNL     1     -41.437  43.620  26.290  1.00  0.00     0.027 H 
ATOM     55  H   UNL     1     -40.935  42.561  24.899  1.00  0.00     0.027 H 
ATOM     56  H   UNL     1     -43.055  44.828  24.785  1.00  0.00     0.027 H 
ATOM     57  H   UNL     1     -42.559  43.769  23.396  1.00  0.00     0.027 H 
ENDBRANCH  47  50
ENDBRANCH  39  47
BRANCH  43  58
ATOM     58  N   UNL     1     -41.761  42.374  28.796  1.00  0.00    -0.383 N 
ATOM     59  H   UNL     1     -41.883  43.004  29.583  1.00  0.00     0.158 HD
ATOM     60  H   UNL     1     -40.800  42.172  28.560  1.00  0.00     0.158 HD
ENDBRANCH  43  58
ENDBRANCH  31  36
ENDBRANCH   1  26
TORSDOF 9
ENDMDL
MODEL 3
REMARK VINA RESULT:      -9.8      2.194     12.100
REMARK SMILES CNc1ccc2ccc(OCc3cccc(-n4cc(CC5CC5)c5c(N)ncnc54)c3)cc2n1
REMARK SMILES IDX 11 1 10 4 9 5 3 6 4 7 34 8 5 9 33 11 6 12 32 14 7 15 8 17
REMARK SMILES IDX 2 20 1 22 12 26 13 27 31 28 14 29 16 31 15 33 17 36 18 37
REMARK SMILES IDX 30 38 19 39 24 41 29 42 25 43 28 44 27 45 20 47 21 50 22 51
REMARK SMILES IDX 23 52 26 58
REMARK H PARENT 11 2 11 3 4 10 5 13 32 16 7 18 8 19 2 21 1 23 1 24 1 25 13 30
REMARK H PARENT 31 32 14 34 15 35 18 40 28 46 20 48 20 49 21 53 22 54 22 55
REMARK H PARENT 23 56 23 57 26 59 26 60
REMARK Flexibility Score: inf
ROOT
ATOM      1  C   UNL     1     -48.295  35.875  27.075  1.00  0.00     0.113 C 
ATOM      2  H   UNL     1     -48.095  36.031  26.008  1.00  0.00     0.076 H 
ATOM      3  H   UNL     1     -49.267  36.310  27.342  1.00  0.00     0.076 H 
ENDROOT
BRANCH   1   4
ATOM      4  O   UNL     1     -48.277  34.475  27.354  1.00  0.00    -0.489 OA
BRANCH   4   5
ATOM      5  C   UNL     1     -47.801  33.646  26.376  1.00  0.00     0.122 A 
ATOM      6  C   UNL     1     -48.699  29.564  24.084  1.00  0.00     0.126 A 
ATOM      7  C   UNL     1     -47.556  29.699  23.304  1.00  0.00    -0.019 A 
ATOM      8  N   UNL     1     -49.027  30.478  25.019  1.00  0.00    -0.231 NA
ATOM      9  C   UNL     1     -46.739  30.811  23.476  1.00  0.00    -0.049 A 
ATOM     10  H   UNL     1     -47.294  28.938  22.576  1.00  0.00     0.066 H 
ATOM     11  C   UNL     1     -48.240  31.556  25.193  1.00  0.00     0.076 A 
ATOM     12  C   UNL     1     -47.075  31.769  24.435  1.00  0.00     0.001 A 
ATOM     13  H   UNL     1     -45.845  30.916  22.867  1.00  0.00     0.063 H 
ATOM     14  C   UNL     1     -48.577  32.503  26.151  1.00  0.00     0.007 A 
ATOM     15  C   UNL     1     -46.286  32.911  24.651  1.00  0.00    -0.049 A 
ATOM     16  H   UNL     1     -49.475  32.346  26.744  1.00  0.00     0.069 H 
ATOM     17  C   UNL     1     -46.650  33.848  25.621  1.00  0.00    -0.019 A 
ATOM     18  H   UNL     1     -45.383  33.075  24.068  1.00  0.00     0.063 H 
ATOM     19  H   UNL     1     -46.013  34.715  25.758  1.00  0.00     0.066 H 
BRANCH   6  20
ATOM     20  N   UNL     1     -49.487  28.413  23.899  1.00  0.00    -0.373 N 
ATOM     21  H   UNL     1     -49.352  27.793  24.693  1.00  0.00     0.161 HD
BRANCH  20  22
ATOM     22  C   UNL     1     -49.257  27.731  22.636  1.00  0.00     0.005 C 
ATOM     23  H   UNL     1     -48.343  28.129  22.181  1.00  0.00     0.045 H 
ATOM     24  H   UNL     1     -50.078  27.900  21.930  1.00  0.00     0.045 H 
ATOM     25  H   UNL     1     -49.107  26.656  22.780  1.00  0.00     0.045 H 
ENDBRANCH  20  22
ENDBRANCH   6  20
ENDBRANCH   4   5
ENDBRANCH   1   4
BRANCH   1  26
ATOM     26  C   UNL     1     -47.232  36.573  27.896  1.00  0.00    -0.009 A 
ATOM     27  C   UNL     1     -46.936  36.150  29.196  1.00  0.00    -0.055 A 
ATOM     28  C   UNL     1     -46.565  37.698  27.376  1.00  0.00    -0.031 A 
ATOM     29  C   UNL     1     -45.977  36.819  29.950  1.00  0.00    -0.060 A 
ATOM     30  H   UNL     1     -47.448  35.290  29.624  1.00  0.00     0.063 H 
ATOM     31  C   UNL     1     -45.598  38.385  28.124  1.00  0.00     0.047 A 
ATOM     32  H   UNL     1     -46.806  37.996  26.359  1.00  0.00     0.065 H 
ATOM     33  C   UNL     1     -45.309  37.926  29.420  1.00  0.00    -0.038 A 
ATOM     34  H   UNL     1     -45.750  36.480  30.959  1.00  0.00     0.062 H 
ATOM     35  H   UNL     1     -44.591  38.421  30.065  1.00  0.00     0.064 H 
BRANCH  31  36
ATOM     36  N   UNL     1     -44.910  39.530  27.590  1.00  0.00    -0.301 N 
ATOM     37  C   UNL     1     -45.202  40.129  26.376  1.00  0.00     0.015 A 
ATOM     38  C   UNL     1     -43.855  40.248  28.156  1.00  0.00     0.150 A 
ATOM     39  C   UNL     1     -44.374  41.216  26.163  1.00  0.00    -0.016 A 
ATOM     40  H   UNL     1     -46.013  39.776  25.756  1.00  0.00     0.083 H 
ATOM     41  C   UNL     1     -43.496  41.283  27.289  1.00  0.00     0.065 A 
ATOM     42  N   UNL     1     -43.248  39.983  29.332  1.00  0.00    -0.218 NA
ATOM     43  C   UNL     1     -42.430  42.106  27.700  1.00  0.00     0.136 A 
ATOM     44  C   UNL     1     -42.262  40.839  29.617  1.00  0.00     0.120 A 
ATOM     45  N   UNL     1     -41.826  41.867  28.878  1.00  0.00    -0.219 NA
ATOM     46  H   UNL     1     -41.749  40.681  30.560  1.00  0.00     0.106 H 
BRANCH  39  47
ATOM     47  C   UNL     1     -44.454  42.127  24.976  1.00  0.00    -0.023 C 
ATOM     48  H   UNL     1     -45.090  41.652  24.216  1.00  0.00     0.032 H 
ATOM     49  H   UNL     1     -43.473  42.226  24.503  1.00  0.00     0.032 H 
BRANCH  47  50
ATOM     50  C   UNL     1     -45.037  43.478  25.283  1.00  0.00    -0.037 C 
ATOM     51  C   UNL     1     -45.651  44.307  24.184  1.00  0.00    -0.050 C 
ATOM     52  C   UNL     1     -44.359  44.742  24.820  1.00  0.00    -0.050 C 
ATOM     53  H   UNL     1     -45.527  43.497  26.252  1.00  0.00     0.031 H 
ATOM     54  H   UNL     1     -45.613  43.941  23.165  1.00  0.00     0.027 H 
ATOM     55  H   UNL     1     -46.545  44.876  24.417  1.00  0.00     0.027 H 
ATOM     56  H   UNL     1     -43.451  44.666  24.234  1.00  0.00     0.027 H 
ATOM     57  H   UNL     1     -44.379  45.597  25.487  1.00  0.00     0.027 H 
ENDBRANCH  47  50
ENDBRANCH  39  47
BRANCH  43  58
ATOM     58  N   UNL     1     -41.905  43.160  26.962  1.00  0.00    -0.383 N 
ATOM     59  H   UNL     1     -40.937  43.305  27.231  1.00  0.00     0.158 HD
ATOM     60  H   UNL     1     -42.062  43.084  25.968  1.00  0.00     0.158 HD
ENDBRANCH  43  58
ENDBRANCH  31  36
ENDBRANCH   1  26
TORSDOF 9
ENDMDL
MODEL 4
REMARK VINA RESULT:      -9.6      2.004      2.947
REMARK SMILES CNc1ccc2ccc(OCc3cccc(-n4cc(CC5CC5)c5c(N)ncnc54)c3)cc2n1
REMARK SMILES IDX 11 1 10 4 9 5 3 6 4 7 34 8 5 9 33 11 6 12 32 14 7 15 8 17
REMARK SMILES IDX 2 20 1 22 12 26 13 27 31 28 14 29 16 31 15 33 17 36 18 37
REMARK SMILES IDX 30 38 19 39 24 41 29 42 25 43 28 44 27 45 20 47 21 50 22 51
REMARK SMILES IDX 23 52 26 58
REMARK H PARENT 11 2 11 3 4 10 5 13 32 16 7 18 8 19 2 21 1 23 1 24 1 25 13 30
REMARK H PARENT 31 32 14 34 15 35 18 40 28 46 20 48 20 49 21 53 22 54 22 55
REMARK H PARENT 23 56 23 57 26 59 26 60
REMARK Flexibility Score: inf
ROOT
ATOM      1  C   UNL     1     -45.938  35.796  27.314  1.00  0.00     0.113 C 
ATOM      2  H   UNL     1     -45.204  35.747  26.500  1.00  0.00     0.076 H 
ATOM      3  H   UNL     1     -45.528  35.327  28.217  1.00  0.00     0.076 H 
ENDROOT
BRANCH   1   4
ATOM      4  O   UNL     1     -46.267  37.163  27.563  1.00  0.00    -0.489 OA
BRANCH   4   5
ATOM      5  C   UNL     1     -45.345  37.918  28.235  1.00  0.00     0.122 A 
ATOM      6  C   UNL     1     -42.649  41.833  27.875  1.00  0.00     0.126 A 
ATOM      7  C   UNL     1     -42.105  41.628  29.138  1.00  0.00    -0.019 A 
ATOM      8  N   UNL     1     -43.553  40.982  27.350  1.00  0.00    -0.231 NA
ATOM      9  C   UNL     1     -42.514  40.531  29.888  1.00  0.00    -0.049 A 
ATOM     10  H   UNL     1     -41.357  42.309  29.531  1.00  0.00     0.066 H 
ATOM     11  C   UNL     1     -43.952  39.916  28.069  1.00  0.00     0.076 A 
ATOM     12  C   UNL     1     -43.458  39.649  29.358  1.00  0.00     0.001 A 
ATOM     13  H   UNL     1     -42.088  40.370  30.875  1.00  0.00     0.063 H 
ATOM     14  C   UNL     1     -44.888  39.041  27.535  1.00  0.00     0.007 A 
ATOM     15  C   UNL     1     -43.906  38.525  30.071  1.00  0.00    -0.049 A 
ATOM     16  H   UNL     1     -45.275  39.238  26.537  1.00  0.00     0.069 H 
ATOM     17  C   UNL     1     -44.849  37.662  29.510  1.00  0.00    -0.019 A 
ATOM     18  H   UNL     1     -43.522  38.315  31.067  1.00  0.00     0.063 H 
ATOM     19  H   UNL     1     -45.168  36.804  30.092  1.00  0.00     0.066 H 
BRANCH   6  20
ATOM     20  N   UNL     1     -42.192  42.939  27.135  1.00  0.00    -0.373 N 
ATOM     21  H   UNL     1     -42.346  43.783  27.678  1.00  0.00     0.161 HD
BRANCH  20  22
ATOM     22  C   UNL     1     -42.767  43.040  25.803  1.00  0.00     0.005 C 
ATOM     23  H   UNL     1     -43.591  43.761  25.827  1.00  0.00     0.045 H 
ATOM     24  H   UNL     1     -43.177  42.082  25.466  1.00  0.00     0.045 H 
ATOM     25  H   UNL     1     -42.035  43.407  25.075  1.00  0.00     0.045 H 
ENDBRANCH  20  22
ENDBRANCH   6  20
ENDBRANCH   4   5
ENDBRANCH   1   4
BRANCH   1  26
ATOM     26  C   UNL     1     -47.184  35.035  26.918  1.00  0.00    -0.009 A 
ATOM     27  C   UNL     1     -48.455  35.589  27.110  1.00  0.00    -0.055 A 
ATOM     28  C   UNL     1     -47.079  33.730  26.402  1.00  0.00    -0.031 A 
ATOM     29  C   UNL     1     -49.594  34.866  26.769  1.00  0.00    -0.060 A 
ATOM     30  H   UNL     1     -48.561  36.591  27.520  1.00  0.00     0.063 H 
ATOM     31  C   UNL     1     -48.218  32.987  26.056  1.00  0.00     0.047 A 
ATOM     32  H   UNL     1     -46.081  33.331  26.251  1.00  0.00     0.065 H 
ATOM     33  C   UNL     1     -49.480  33.576  26.243  1.00  0.00    -0.038 A 
ATOM     34  H   UNL     1     -50.578  35.306  26.918  1.00  0.00     0.062 H 
ATOM     35  H   UNL     1     -50.403  33.053  26.020  1.00  0.00     0.064 H 
BRANCH  31  36
ATOM     36  N   UNL     1     -48.111  31.657  25.520  1.00  0.00    -0.301 N 
ATOM     37  C   UNL     1     -48.769  30.548  26.025  1.00  0.00     0.015 A 
ATOM     38  C   UNL     1     -47.361  31.221  24.426  1.00  0.00     0.150 A 
ATOM     39  C   UNL     1     -48.471  29.426  25.274  1.00  0.00    -0.016 A 
ATOM     40  H   UNL     1     -49.449  30.631  26.861  1.00  0.00     0.083 H 
ATOM     41  C   UNL     1     -47.552  29.847  24.263  1.00  0.00     0.065 A 
ATOM     42  N   UNL     1     -46.551  31.982  23.659  1.00  0.00    -0.218 NA
ATOM     43  C   UNL     1     -46.853  29.235  23.206  1.00  0.00     0.136 A 
ATOM     44  C   UNL     1     -45.954  31.291  22.683  1.00  0.00     0.120 A 
ATOM     45  N   UNL     1     -46.057  29.982  22.420  1.00  0.00    -0.219 NA
ATOM     46  H   UNL     1     -45.303  31.859  22.025  1.00  0.00     0.106 H 
BRANCH  39  47
ATOM     47  C   UNL     1     -49.056  28.066  25.507  1.00  0.00    -0.023 C 
ATOM     48  H   UNL     1     -49.022  27.507  24.562  1.00  0.00     0.032 H 
ATOM     49  H   UNL     1     -50.118  28.143  25.754  1.00  0.00     0.032 H 
BRANCH  47  50
ATOM     50  C   UNL     1     -48.324  27.258  26.543  1.00  0.00    -0.037 C 
ATOM     51  C   UNL     1     -47.206  26.333  26.133  1.00  0.00    -0.050 C 
ATOM     52  C   UNL     1     -48.505  25.764  26.634  1.00  0.00    -0.050 C 
ATOM     53  H   UNL     1     -48.200  27.806  27.471  1.00  0.00     0.031 H 
ATOM     54  H   UNL     1     -46.978  26.219  25.080  1.00  0.00     0.027 H 
ATOM     55  H   UNL     1     -46.341  26.266  26.783  1.00  0.00     0.027 H 
ATOM     56  H   UNL     1     -49.154  25.269  25.921  1.00  0.00     0.027 H 
ATOM     57  H   UNL     1     -48.521  25.319  27.623  1.00  0.00     0.027 H 
ENDBRANCH  47  50
ENDBRANCH  39  47
BRANCH  43  58
ATOM     58  N   UNL     1     -46.885  27.879  22.907  1.00  0.00    -0.383 N 
ATOM     59  H   UNL     1     -45.939  27.511  22.929  1.00  0.00     0.158 HD
ATOM     60  H   UNL     1     -47.557  27.355  23.448  1.00  0.00     0.158 HD
ENDBRANCH  43  58
ENDBRANCH  31  36
ENDBRANCH   1  26
TORSDOF 9
ENDMDL
MODEL 5
REMARK VINA RESULT:      -9.5      2.042     12.029
REMARK SMILES CNc1ccc2ccc(OCc3cccc(-n4cc(CC5CC5)c5c(N)ncnc54)c3)cc2n1
REMARK SMILES IDX 11 1 10 4 9 5 3 6 4 7 34 8 5 9 33 11 6 12 32 14 7 15 8 17
REMARK SMILES IDX 2 20 1 22 12 26 13 27 31 28 14 29 16 31 15 33 17 36 18 37
REMARK SMILES IDX 30 38 19 39 24 41 29 42 25 43 28 44 27 45 20 47 21 50 22 51
REMARK SMILES IDX 23 52 26 58
REMARK H PARENT 11 2 11 3 4 10 5 13 32 16 7 18 8 19 2 21 1 23 1 24 1 25 13 30
REMARK H PARENT 31 32 14 34 15 35 18 40 28 46 20 48 20 49 21 53 22 54 22 55
REMARK H PARENT 23 56 23 57 26 59 26 60
REMARK Flexibility Score: inf
ROOT
ATOM      1  C   UNL     1     -47.327  34.009  26.012  1.00  0.00     0.113 C 
ATOM      2  H   UNL     1     -46.262  33.776  26.135  1.00  0.00     0.076 H 
ATOM      3  H   UNL     1     -47.568  34.111  24.946  1.00  0.00     0.076 H 
ENDROOT
BRANCH   1   4
ATOM      4  O   UNL     1     -48.105  32.969  26.606  1.00  0.00    -0.489 OA
BRANCH   4   5
ATOM      5  C   UNL     1     -48.673  32.052  25.765  1.00  0.00     0.122 A 
ATOM      6  C   UNL     1     -48.919  27.381  24.844  1.00  0.00     0.126 A 
ATOM      7  C   UNL     1     -49.776  27.593  23.771  1.00  0.00    -0.019 A 
ATOM      8  N   UNL     1     -48.439  28.406  25.577  1.00  0.00    -0.231 NA
ATOM      9  C   UNL     1     -50.166  28.890  23.453  1.00  0.00    -0.049 A 
ATOM     10  H   UNL     1     -50.130  26.757  23.176  1.00  0.00     0.066 H 
ATOM     11  C   UNL     1     -48.809  29.665  25.274  1.00  0.00     0.076 A 
ATOM     12  C   UNL     1     -49.682  29.958  24.211  1.00  0.00     0.001 A 
ATOM     13  H   UNL     1     -50.834  29.056  22.612  1.00  0.00     0.063 H 
ATOM     14  C   UNL     1     -48.322  30.723  26.029  1.00  0.00     0.007 A 
ATOM     15  C   UNL     1     -50.041  31.288  23.934  1.00  0.00    -0.049 A 
ATOM     16  H   UNL     1     -47.644  30.506  26.852  1.00  0.00     0.069 H 
ATOM     17  C   UNL     1     -49.537  32.332  24.711  1.00  0.00    -0.019 A 
ATOM     18  H   UNL     1     -50.713  31.516  23.110  1.00  0.00     0.063 H 
ATOM     19  H   UNL     1     -49.837  33.345  24.463  1.00  0.00     0.066 H 
BRANCH   6  20
ATOM     20  N   UNL     1     -48.527  26.058  25.121  1.00  0.00    -0.373 N 
ATOM     21  H   UNL     1     -49.086  25.426  24.555  1.00  0.00     0.161 HD
BRANCH  20  22
ATOM     22  C   UNL     1     -48.575  25.707  26.531  1.00  0.00     0.005 C 
ATOM     23  H   UNL     1     -49.017  24.710  26.633  1.00  0.00     0.045 H 
ATOM     24  H   UNL     1     -49.200  26.405  27.100  1.00  0.00     0.045 H 
ATOM     25  H   UNL     1     -47.572  25.666  26.970  1.00  0.00     0.045 H 
ENDBRANCH  20  22
ENDBRANCH   6  20
ENDBRANCH   4   5
ENDBRANCH   1   4
BRANCH   1  26
ATOM     26  C   UNL     1     -47.637  35.328  26.687  1.00  0.00    -0.009 A 
ATOM     27  C   UNL     1     -48.902  35.576  27.230  1.00  0.00    -0.055 A 
ATOM     28  C   UNL     1     -46.666  36.346  26.724  1.00  0.00    -0.031 A 
ATOM     29  C   UNL     1     -49.183  36.805  27.821  1.00  0.00    -0.060 A 
ATOM     30  H   UNL     1     -49.673  34.809  27.200  1.00  0.00     0.063 H 
ATOM     31  C   UNL     1     -46.934  37.590  27.314  1.00  0.00     0.047 A 
ATOM     32  H   UNL     1     -45.689  36.120  26.307  1.00  0.00     0.065 H 
ATOM     33  C   UNL     1     -48.207  37.804  27.867  1.00  0.00    -0.038 A 
ATOM     34  H   UNL     1     -50.168  36.987  28.245  1.00  0.00     0.062 H 
ATOM     35  H   UNL     1     -48.493  38.748  28.318  1.00  0.00     0.064 H 
BRANCH  31  36
ATOM     36  N   UNL     1     -45.939  38.627  27.361  1.00  0.00    -0.301 N 
ATOM     37  C   UNL     1     -45.732  39.567  26.365  1.00  0.00     0.015 A 
ATOM     38  C   UNL     1     -45.016  38.898  28.374  1.00  0.00     0.150 A 
ATOM     39  C   UNL     1     -44.718  40.436  26.723  1.00  0.00    -0.016 A 
ATOM     40  H   UNL     1     -46.352  39.593  25.481  1.00  0.00     0.083 H 
ATOM     41  C   UNL     1     -44.241  39.997  27.998  1.00  0.00     0.065 A 
ATOM     42  N   UNL     1     -44.862  38.202  29.520  1.00  0.00    -0.218 NA
ATOM     43  C   UNL     1     -43.242  40.402  28.904  1.00  0.00     0.136 A 
ATOM     44  C   UNL     1     -43.893  38.689  30.301  1.00  0.00     0.120 A 
ATOM     45  N   UNL     1     -43.087  39.731  30.060  1.00  0.00    -0.219 NA
ATOM     46  H   UNL     1     -43.737  38.176  31.245  1.00  0.00     0.106 H 
BRANCH  39  47
ATOM     47  C   UNL     1     -44.272  41.609  25.904  1.00  0.00    -0.023 C 
ATOM     48  H   UNL     1     -44.608  41.457  24.870  1.00  0.00     0.032 H 
ATOM     49  H   UNL     1     -43.181  41.643  25.846  1.00  0.00     0.032 H 
BRANCH  47  50
ATOM     50  C   UNL     1     -44.823  42.925  26.376  1.00  0.00    -0.037 C 
ATOM     51  C   UNL     1     -45.002  44.065  25.406  1.00  0.00    -0.050 C 
ATOM     52  C   UNL     1     -43.945  44.147  26.472  1.00  0.00    -0.050 C 
ATOM     53  H   UNL     1     -45.587  42.796  27.136  1.00  0.00     0.031 H 
ATOM     54  H   UNL     1     -44.676  43.938  24.380  1.00  0.00     0.027 H 
ATOM     55  H   UNL     1     -45.880  44.691  25.516  1.00  0.00     0.027 H 
ATOM     56  H   UNL     1     -42.906  44.072  26.169  1.00  0.00     0.027 H 
ATOM     57  H   UNL     1     -44.109  44.821  27.306  1.00  0.00     0.027 H 
ENDBRANCH  47  50
ENDBRANCH  39  47
BRANCH  43  58
ATOM     58  N   UNL     1     -42.350  41.446  28.695  1.00  0.00    -0.383 N 
ATOM     59  H   UNL     1     -42.788  42.144  28.103  1.00  0.00     0.158 HD
ATOM     60  H   UNL     1     -41.936  41.809  29.541  1.00  0.00     0.158 HD
ENDBRANCH  43  58
ENDBRANCH  31  36
ENDBRANCH   1  26
TORSDOF 9
ENDMDL
MODEL 6
REMARK VINA RESULT:      -9.2      3.003     12.168
REMARK SMILES CNc1ccc2ccc(OCc3cccc(-n4cc(CC5CC5)c5c(N)ncnc54)c3)cc2n1
REMARK SMILES IDX 11 1 10 4 9 5 3 6 4 7 34 8 5 9 33 11 6 12 32 14 7 15 8 17
REMARK SMILES IDX 2 20 1 22 12 26 13 27 31 28 14 29 16 31 15 33 17 36 18 37
REMARK SMILES IDX 30 38 19 39 24 41 29 42 25 43 28 44 27 45 20 47 21 50 22 51
REMARK SMILES IDX 23 52 26 58
REMARK H PARENT 11 2 11 3 4 10 5 13 32 16 7 18 8 19 2 21 1 23 1 24 1 25 13 30
REMARK H PARENT 31 32 14 34 15 35 18 40 28 46 20 48 20 49 21 53 22 54 22 55
REMARK H PARENT 23 56 23 57 26 59 26 60
REMARK Flexibility Score: inf
ROOT
ATOM      1  C   UNL     1     -46.275  35.941  27.477  1.00  0.00     0.113 C 
ATOM      2  H   UNL     1     -46.869  35.296  28.136  1.00  0.00     0.076 H 
ATOM      3  H   UNL     1     -45.227  35.944  27.801  1.00  0.00     0.076 H 
ENDROOT
BRANCH   1   4
ATOM      4  O   UNL     1     -46.384  35.465  26.135  1.00  0.00    -0.489 OA
BRANCH   4   5
ATOM      5  C   UNL     1     -47.143  34.347  25.926  1.00  0.00     0.122 A 
ATOM      6  C   UNL     1     -47.188  30.155  23.656  1.00  0.00     0.126 A 
ATOM      7  C   UNL     1     -48.451  29.851  24.150  1.00  0.00    -0.019 A 
ATOM      8  N   UNL     1     -46.573  31.317  23.957  1.00  0.00    -0.231 NA
ATOM      9  C   UNL     1     -49.091  30.754  24.990  1.00  0.00    -0.049 A 
ATOM     10  H   UNL     1     -48.940  28.923  23.873  1.00  0.00     0.066 H 
ATOM     11  C   UNL     1     -47.188  32.198  24.767  1.00  0.00     0.076 A 
ATOM     12  C   UNL     1     -48.459  31.956  25.316  1.00  0.00     0.001 A 
ATOM     13  H   UNL     1     -50.079  30.518  25.375  1.00  0.00     0.063 H 
ATOM     14  C   UNL     1     -46.556  33.393  25.086  1.00  0.00     0.007 A 
ATOM     15  C   UNL     1     -49.060  32.906  26.160  1.00  0.00    -0.049 A 
ATOM     16  H   UNL     1     -45.573  33.590  24.663  1.00  0.00     0.069 H 
ATOM     17  C   UNL     1     -48.401  34.099  26.463  1.00  0.00    -0.019 A 
ATOM     18  H   UNL     1     -50.046  32.722  26.582  1.00  0.00     0.063 H 
ATOM     19  H   UNL     1     -48.901  34.806  27.116  1.00  0.00     0.066 H 
BRANCH   6  20
ATOM     20  N   UNL     1     -46.581  29.228  22.788  1.00  0.00    -0.373 N 
ATOM     21  H   UNL     1     -46.576  28.315  23.234  1.00  0.00     0.161 HD
BRANCH  20  22
ATOM     22  C   UNL     1     -45.253  29.616  22.339  1.00  0.00     0.005 C 
ATOM     23  H   UNL     1     -44.528  29.365  23.120  1.00  0.00     0.045 H 
ATOM     24  H   UNL     1     -45.187  30.694  22.159  1.00  0.00     0.045 H 
ATOM     25  H   UNL     1     -44.959  29.072  21.435  1.00  0.00     0.045 H 
ENDBRANCH  20  22
ENDBRANCH   6  20
ENDBRANCH   4   5
ENDBRANCH   1   4
BRANCH   1  26
ATOM     26  C   UNL     1     -46.792  37.361  27.559  1.00  0.00    -0.009 A 
ATOM     27  C   UNL     1     -48.084  37.629  28.023  1.00  0.00    -0.055 A 
ATOM     28  C   UNL     1     -45.992  38.429  27.112  1.00  0.00    -0.031 A 
ATOM     29  C   UNL     1     -48.558  38.937  28.064  1.00  0.00    -0.060 A 
ATOM     30  H   UNL     1     -48.726  36.817  28.361  1.00  0.00     0.063 H 
ATOM     31  C   UNL     1     -46.456  39.752  27.145  1.00  0.00     0.047 A 
ATOM     32  H   UNL     1     -44.989  38.193  26.770  1.00  0.00     0.065 H 
ATOM     33  C   UNL     1     -47.751  39.993  27.633  1.00  0.00    -0.038 A 
ATOM     34  H   UNL     1     -49.562  39.136  28.431  1.00  0.00     0.062 H 
ATOM     35  H   UNL     1     -48.184  40.987  27.666  1.00  0.00     0.064 H 
BRANCH  31  36
ATOM     36  N   UNL     1     -45.635  40.846  26.697  1.00  0.00    -0.301 N 
ATOM     37  C   UNL     1     -46.007  41.766  25.731  1.00  0.00     0.015 A 
ATOM     38  C   UNL     1     -44.353  41.198  27.123  1.00  0.00     0.150 A 
ATOM     39  C   UNL     1     -45.005  42.701  25.544  1.00  0.00    -0.016 A 
ATOM     40  H   UNL     1     -46.982  41.731  25.268  1.00  0.00     0.083 H 
ATOM     41  C   UNL     1     -43.935  42.328  26.416  1.00  0.00     0.065 A 
ATOM     42  N   UNL     1     -43.609  40.546  28.042  1.00  0.00    -0.218 NA
ATOM     43  C   UNL     1     -42.648  42.815  26.712  1.00  0.00     0.136 A 
ATOM     44  C   UNL     1     -42.415  41.110  28.244  1.00  0.00     0.120 A 
ATOM     45  N   UNL     1     -41.901  42.189  27.639  1.00  0.00    -0.219 NA
ATOM     46  H   UNL     1     -41.781  40.635  28.987  1.00  0.00     0.106 H 
BRANCH  39  47
ATOM     47  C   UNL     1     -45.097  43.872  24.614  1.00  0.00    -0.023 C 
ATOM     48  H   UNL     1     -44.586  44.726  25.080  1.00  0.00     0.032 H 
ATOM     49  H   UNL     1     -46.137  44.191  24.501  1.00  0.00     0.032 H 
BRANCH  47  50
ATOM     50  C   UNL     1     -44.463  43.636  23.272  1.00  0.00    -0.037 C 
ATOM     51  C   UNL     1     -43.301  44.484  22.821  1.00  0.00    -0.050 C 
ATOM     52  C   UNL     1     -44.637  44.621  22.144  1.00  0.00    -0.050 C 
ATOM     53  H   UNL     1     -44.435  42.581  23.017  1.00  0.00     0.031 H 
ATOM     54  H   UNL     1     -42.970  45.300  23.453  1.00  0.00     0.027 H 
ATOM     55  H   UNL     1     -42.503  44.000  22.270  1.00  0.00     0.027 H 
ATOM     56  H   UNL     1     -45.209  45.525  22.320  1.00  0.00     0.027 H 
ATOM     57  H   UNL     1     -44.746  44.224  21.141  1.00  0.00     0.027 H 
ENDBRANCH  47  50
ENDBRANCH  39  47
BRANCH  43  58
ATOM     58  N   UNL     1     -42.044  43.902  26.092  1.00  0.00    -0.383 N 
ATOM     59  H   UNL     1     -42.359  44.757  26.538  1.00  0.00     0.158 HD
ATOM     60  H   UNL     1     -41.042  43.817  25.999  1.00  0.00     0.158 HD
ENDBRANCH  43  58
ENDBRANCH  31  36
ENDBRANCH   1  26
TORSDOF 9
ENDMDL
MODEL 7
REMARK VINA RESULT:      -9.2      3.044     11.693
REMARK SMILES CNc1ccc2ccc(OCc3cccc(-n4cc(CC5CC5)c5c(N)ncnc54)c3)cc2n1
REMARK SMILES IDX 11 1 10 4 9 5 3 6 4 7 34 8 5 9 33 11 6 12 32 14 7 15 8 17
REMARK SMILES IDX 2 20 1 22 12 26 13 27 31 28 14 29 16 31 15 33 17 36 18 37
REMARK SMILES IDX 30 38 19 39 24 41 29 42 25 43 28 44 27 45 20 47 21 50 22 51
REMARK SMILES IDX 23 52 26 58
REMARK H PARENT 11 2 11 3 4 10 5 13 32 16 7 18 8 19 2 21 1 23 1 24 1 25 13 30
REMARK H PARENT 31 32 14 34 15 35 18 40 28 46 20 48 20 49 21 53 22 54 22 55
REMARK H PARENT 23 56 23 57 26 59 26 60
REMARK Flexibility Score: inf
ROOT
ATOM      1  C   UNL     1     -48.075  35.294  26.606  1.00  0.00     0.113 C 
ATOM      2  H   UNL     1     -48.037  35.354  25.512  1.00  0.00     0.076 H 
ATOM      3  H   UNL     1     -49.061  35.612  26.965  1.00  0.00     0.076 H 
ENDROOT
BRANCH   1   4
ATOM      4  O   UNL     1     -47.803  33.951  27.009  1.00  0.00    -0.489 OA
BRANCH   4   5
ATOM      5  C   UNL     1     -47.463  33.058  26.030  1.00  0.00     0.122 A 
ATOM      6  C   UNL     1     -48.517  28.749  24.283  1.00  0.00     0.126 A 
ATOM      7  C   UNL     1     -47.544  28.863  23.297  1.00  0.00    -0.019 A 
ATOM      8  N   UNL     1     -48.724  29.729  25.186  1.00  0.00    -0.231 NA
ATOM      9  C   UNL     1     -46.777  30.021  23.223  1.00  0.00    -0.049 A 
ATOM     10  H   UNL     1     -47.374  28.052  22.597  1.00  0.00     0.066 H 
ATOM     11  C   UNL     1     -47.984  30.852  25.123  1.00  0.00     0.076 A 
ATOM     12  C   UNL     1     -46.991  31.046  24.147  1.00  0.00     0.001 A 
ATOM     13  H   UNL     1     -46.016  30.109  22.453  1.00  0.00     0.063 H 
ATOM     14  C   UNL     1     -48.198  31.867  26.047  1.00  0.00     0.007 A 
ATOM     15  C   UNL     1     -46.245  32.236  24.120  1.00  0.00    -0.049 A 
ATOM     16  H   UNL     1     -48.963  31.725  26.807  1.00  0.00     0.069 H 
ATOM     17  C   UNL     1     -46.482  33.240  25.061  1.00  0.00    -0.019 A 
ATOM     18  H   UNL     1     -45.474  32.386  23.368  1.00  0.00     0.063 H 
ATOM     19  H   UNL     1     -45.883  34.143  25.007  1.00  0.00     0.066 H 
BRANCH   6  20
ATOM     20  N   UNL     1     -49.256  27.553  24.342  1.00  0.00    -0.373 N 
ATOM     21  H   UNL     1     -49.905  27.530  23.562  1.00  0.00     0.161 HD
BRANCH  20  22
ATOM     22  C   UNL     1     -49.930  27.334  25.612  1.00  0.00     0.005 C 
ATOM     23  H   UNL     1     -51.010  27.301  25.439  1.00  0.00     0.045 H 
ATOM     24  H   UNL     1     -49.733  28.147  26.320  1.00  0.00     0.045 H 
ATOM     25  H   UNL     1     -49.642  26.377  26.061  1.00  0.00     0.045 H 
ENDBRANCH  20  22
ENDBRANCH   6  20
ENDBRANCH   4   5
ENDBRANCH   1   4
BRANCH   1  26
ATOM     26  C   UNL     1     -47.040  36.224  27.201  1.00  0.00    -0.009 A 
ATOM     27  C   UNL     1     -46.201  35.797  28.236  1.00  0.00    -0.055 A 
ATOM     28  C   UNL     1     -46.949  37.555  26.754  1.00  0.00    -0.031 A 
ATOM     29  C   UNL     1     -45.274  36.673  28.794  1.00  0.00    -0.060 A 
ATOM     30  H   UNL     1     -46.262  34.776  28.607  1.00  0.00     0.063 H 
ATOM     31  C   UNL     1     -46.022  38.450  27.308  1.00  0.00     0.047 A 
ATOM     32  H   UNL     1     -47.603  37.855  25.940  1.00  0.00     0.065 H 
ATOM     33  C   UNL     1     -45.181  37.989  28.333  1.00  0.00    -0.038 A 
ATOM     34  H   UNL     1     -44.623  36.331  29.595  1.00  0.00     0.062 H 
ATOM     35  H   UNL     1     -44.457  38.630  28.824  1.00  0.00     0.064 H 
BRANCH  31  36
ATOM     36  N   UNL     1     -45.923  39.809  26.845  1.00  0.00    -0.301 N 
ATOM     37  C   UNL     1     -44.750  40.416  26.428  1.00  0.00     0.015 A 
ATOM     38  C   UNL     1     -46.939  40.758  26.718  1.00  0.00     0.150 A 
ATOM     39  C   UNL     1     -44.995  41.716  26.026  1.00  0.00    -0.016 A 
ATOM     40  H   UNL     1     -43.817  39.872  26.396  1.00  0.00     0.083 H 
ATOM     41  C   UNL     1     -46.391  41.947  26.231  1.00  0.00     0.065 A 
ATOM     42  N   UNL     1     -48.239  40.584  27.040  1.00  0.00    -0.218 NA
ATOM     43  C   UNL     1     -47.280  43.024  26.056  1.00  0.00     0.136 A 
ATOM     44  C   UNL     1     -48.983  41.672  26.818  1.00  0.00     0.120 A 
ATOM     45  N   UNL     1     -48.582  42.862  26.354  1.00  0.00    -0.219 NA
ATOM     46  H   UNL     1     -50.040  41.582  27.045  1.00  0.00     0.106 H 
BRANCH  39  47
ATOM     47  C   UNL     1     -43.961  42.642  25.463  1.00  0.00    -0.023 C 
ATOM     48  H   UNL     1     -42.972  42.308  25.805  1.00  0.00     0.032 H 
ATOM     49  H   UNL     1     -44.080  43.647  25.879  1.00  0.00     0.032 H 
BRANCH  47  50
ATOM     50  C   UNL     1     -43.935  42.686  23.961  1.00  0.00    -0.037 C 
ATOM     51  C   UNL     1     -42.976  43.603  23.245  1.00  0.00    -0.050 C 
ATOM     52  C   UNL     1     -44.453  43.885  23.208  1.00  0.00    -0.050 C 
ATOM     53  H   UNL     1     -44.106  41.707  23.524  1.00  0.00     0.031 H 
ATOM     54  H   UNL     1     -42.349  44.267  23.827  1.00  0.00     0.027 H 
ATOM     55  H   UNL     1     -42.509  43.238  22.336  1.00  0.00     0.027 H 
ATOM     56  H   UNL     1     -44.823  44.737  23.768  1.00  0.00     0.027 H 
ATOM     57  H   UNL     1     -44.986  43.706  22.281  1.00  0.00     0.027 H 
ENDBRANCH  47  50
ENDBRANCH  39  47
BRANCH  43  58
ATOM     58  N   UNL     1     -46.921  44.292  25.617  1.00  0.00    -0.383 N 
ATOM     59  H   UNL     1     -47.730  44.903  25.667  1.00  0.00     0.158 HD
ATOM     60  H   UNL     1     -46.087  44.657  26.054  1.00  0.00     0.158 HD
ENDBRANCH  43  58
ENDBRANCH  31  36
ENDBRANCH   1  26
TORSDOF 9
ENDMDL
