MODEL 1
REMARK VINA RESULT:     -10.7      0.000      0.000
REMARK SMILES Nc1ccc2ccc(CC[C@H]3C[C@@H](n4ccc5c(N)ncnc54)[C@H](O)[C@@H]3O)cc2n1
REMARK SMILES IDX 10 1 9 4 8 7 2 8 3 9 30 10 4 11 29 13 5 14 28 16 6 17 7 19
REMARK SMILES IDX 1 22 11 25 12 26 26 27 13 29 24 32 27 36 14 38 15 39 23 40
REMARK SMILES IDX 16 41 17 43 22 44 18 46 21 47 20 48 19 50 25 53
REMARK H PARENT 10 2 10 3 9 5 9 6 3 12 4 15 28 18 6 20 7 21 1 23 1 24 11 28
REMARK H PARENT 12 30 12 31 26 33 13 34 24 35 27 37 15 42 16 45 21 49 19 51
REMARK H PARENT 19 52 25 54
REMARK Flexibility Score: inf
ROOT
ATOM      1  C   UNL     1     -46.412  35.115  28.307  1.00  0.00    -0.044 C 
ATOM      2  H   UNL     1     -45.735  34.589  28.993  1.00  0.00     0.027 H 
ATOM      3  H   UNL     1     -47.405  34.671  28.460  1.00  0.00     0.027 H 
ENDROOT
BRANCH   1   4
ATOM      4  C   UNL     1     -45.946  34.840  26.872  1.00  0.00    -0.027 C 
ATOM      5  H   UNL     1     -44.929  34.425  26.907  1.00  0.00     0.032 H 
ATOM      6  H   UNL     1     -45.854  35.772  26.306  1.00  0.00     0.032 H 
BRANCH   4   7
ATOM      7  C   UNL     1     -46.822  33.855  26.136  1.00  0.00    -0.046 A 
ATOM      8  C   UNL     1     -47.304  30.635  22.665  1.00  0.00     0.124 A 
ATOM      9  C   UNL     1     -48.638  30.417  22.963  1.00  0.00    -0.019 A 
ATOM     10  N   UNL     1     -46.536  31.509  23.335  1.00  0.00    -0.231 NA
ATOM     11  C   UNL     1     -49.208  31.124  24.014  1.00  0.00    -0.049 A 
ATOM     12  H   UNL     1     -49.228  29.718  22.383  1.00  0.00     0.066 H 
ATOM     13  C   UNL     1     -47.083  32.197  24.354  1.00  0.00     0.073 A 
ATOM     14  C   UNL     1     -48.431  32.037  24.735  1.00  0.00     0.000 A 
ATOM     15  H   UNL     1     -50.255  30.966  24.260  1.00  0.00     0.063 H 
ATOM     16  C   UNL     1     -46.307  33.104  25.066  1.00  0.00    -0.033 A 
ATOM     17  C   UNL     1     -48.961  32.778  25.804  1.00  0.00    -0.053 A 
ATOM     18  H   UNL     1     -45.267  33.232  24.771  1.00  0.00     0.065 H 
ATOM     19  C   UNL     1     -48.160  33.682  26.499  1.00  0.00    -0.058 A 
ATOM     20  H   UNL     1     -50.000  32.655  26.099  1.00  0.00     0.063 H 
ATOM     21  H   UNL     1     -48.585  34.248  27.324  1.00  0.00     0.063 H 
BRANCH   8  22
ATOM     22  N   UNL     1     -46.697  29.960  21.608  1.00  0.00    -0.384 N 
ATOM     23  H   UNL     1     -45.950  29.359  21.936  1.00  0.00     0.158 HD
ATOM     24  H   UNL     1     -46.350  30.676  20.972  1.00  0.00     0.158 HD
ENDBRANCH   8  22
ENDBRANCH   4   7
ENDBRANCH   1   4
BRANCH   1  25
ATOM     25  C   UNL     1     -46.467  36.599  28.696  1.00  0.00    -0.010 C 
ATOM     26  C   UNL     1     -45.259  37.372  28.163  1.00  0.00    -0.024 C 
ATOM     27  C   UNL     1     -47.632  37.375  28.072  1.00  0.00     0.085 C 
ATOM     28  H   UNL     1     -46.500  36.690  29.789  1.00  0.00     0.033 H 
ATOM     29  C   UNL     1     -45.667  38.834  28.381  1.00  0.00     0.064 C 
ATOM     30  H   UNL     1     -45.103  37.148  27.100  1.00  0.00     0.029 H 
ATOM     31  H   UNL     1     -44.339  37.120  28.702  1.00  0.00     0.029 H 
ATOM     32  C   UNL     1     -47.181  38.852  28.067  1.00  0.00     0.101 C 
ATOM     33  H   UNL     1     -47.798  37.042  27.040  1.00  0.00     0.063 H 
ATOM     34  H   UNL     1     -45.506  39.084  29.439  1.00  0.00     0.056 H 
ATOM     35  H   UNL     1     -47.411  39.304  27.095  1.00  0.00     0.065 H 
BRANCH  27  36
ATOM     36  O   UNL     1     -48.836  37.197  28.799  1.00  0.00    -0.390 OA
ATOM     37  H   UNL     1     -48.756  37.791  29.578  1.00  0.00     0.211 HD
ENDBRANCH  27  36
BRANCH  29  38
ATOM     38  N   UNL     1     -44.920  39.838  27.640  1.00  0.00    -0.327 N 
ATOM     39  C   UNL     1     -45.188  40.319  26.383  1.00  0.00     0.007 A 
ATOM     40  C   UNL     1     -43.757  40.415  28.108  1.00  0.00     0.145 A 
ATOM     41  C   UNL     1     -44.203  41.229  26.053  1.00  0.00    -0.031 A 
ATOM     42  H   UNL     1     -46.040  39.984  25.808  1.00  0.00     0.082 H 
ATOM     43  C   UNL     1     -43.291  41.294  27.141  1.00  0.00     0.061 A 
ATOM     44  N   UNL     1     -43.185  40.164  29.301  1.00  0.00    -0.218 NA
ATOM     45  H   UNL     1     -44.136  41.773  25.120  1.00  0.00     0.065 H 
ATOM     46  C   UNL     1     -42.109  41.987  27.434  1.00  0.00     0.136 A 
ATOM     47  C   UNL     1     -42.056  40.881  29.463  1.00  0.00     0.120 A 
ATOM     48  N   UNL     1     -41.502  41.768  28.615  1.00  0.00    -0.219 NA
ATOM     49  H   UNL     1     -41.525  40.728  30.398  1.00  0.00     0.106 H 
BRANCH  46  50
ATOM     50  N   UNL     1     -41.524  42.908  26.577  1.00  0.00    -0.383 N 
ATOM     51  H   UNL     1     -42.148  43.618  26.221  1.00  0.00     0.158 HD
ATOM     52  H   UNL     1     -40.637  43.229  26.947  1.00  0.00     0.158 HD
ENDBRANCH  46  50
ENDBRANCH  29  38
BRANCH  32  53
ATOM     53  O   UNL     1     -47.901  39.578  29.072  1.00  0.00    -0.388 OA
ATOM     54  H   UNL     1     -48.122  40.443  28.662  1.00  0.00     0.211 HD
ENDBRANCH  32  53
ENDBRANCH   1  25
TORSDOF 8
ENDMDL
MODEL 2
REMARK VINA RESULT:      -9.9      1.909      9.846
REMARK SMILES Nc1ccc2ccc(CC[C@H]3C[C@@H](n4ccc5c(N)ncnc54)[C@H](O)[C@@H]3O)cc2n1
REMARK SMILES IDX 10 1 9 4 8 7 2 8 3 9 30 10 4 11 29 13 5 14 28 16 6 17 7 19
REMARK SMILES IDX 1 22 11 25 12 26 26 27 13 29 24 32 27 36 14 38 15 39 23 40
REMARK SMILES IDX 16 41 17 43 22 44 18 46 21 47 20 48 19 50 25 53
REMARK H PARENT 10 2 10 3 9 5 9 6 3 12 4 15 28 18 6 20 7 21 1 23 1 24 11 28
REMARK H PARENT 12 30 12 31 26 33 13 34 24 35 27 37 15 42 16 45 21 49 19 51
REMARK H PARENT 19 52 25 54
REMARK Flexibility Score: inf
ROOT
ATOM      1  C   UNL     1     -47.756  36.547  27.535  1.00  0.00    -0.044 C 
ATOM      2  H   UNL     1     -48.769  36.826  27.217  1.00  0.00     0.027 H 
ATOM      3  H   UNL     1     -47.654  36.898  28.570  1.00  0.00     0.027 H 
ENDROOT
BRANCH   1   4
ATOM      4  C   UNL     1     -46.755  37.295  26.644  1.00  0.00    -0.027 C 
ATOM      5  H   UNL     1     -47.311  37.978  25.988  1.00  0.00     0.032 H 
ATOM      6  H   UNL     1     -46.242  36.604  25.967  1.00  0.00     0.032 H 
BRANCH   4   7
ATOM      7  C   UNL     1     -45.755  38.115  27.424  1.00  0.00    -0.046 A 
ATOM      8  C   UNL     1     -42.743  41.797  27.576  1.00  0.00     0.124 A 
ATOM      9  C   UNL     1     -42.358  41.512  28.875  1.00  0.00    -0.019 A 
ATOM     10  N   UNL     1     -43.641  41.062  26.899  1.00  0.00    -0.231 NA
ATOM     11  C   UNL     1     -42.935  40.422  29.515  1.00  0.00    -0.049 A 
ATOM     12  H   UNL     1     -41.614  42.118  29.377  1.00  0.00     0.066 H 
ATOM     13  C   UNL     1     -44.203  40.005  27.515  1.00  0.00     0.073 A 
ATOM     14  C   UNL     1     -43.878  39.642  28.838  1.00  0.00     0.000 A 
ATOM     15  H   UNL     1     -42.641  40.184  30.534  1.00  0.00     0.063 H 
ATOM     16  C   UNL     1     -45.138  39.232  26.837  1.00  0.00    -0.033 A 
ATOM     17  C   UNL     1     -44.488  38.529  29.441  1.00  0.00    -0.053 A 
ATOM     18  H   UNL     1     -45.387  39.509  25.814  1.00  0.00     0.065 H 
ATOM     19  C   UNL     1     -45.421  37.770  28.736  1.00  0.00    -0.058 A 
ATOM     20  H   UNL     1     -44.238  38.248  30.460  1.00  0.00     0.063 H 
ATOM     21  H   UNL     1     -45.884  36.912  29.216  1.00  0.00     0.063 H 
BRANCH   8  22
ATOM     22  N   UNL     1     -42.177  42.869  26.890  1.00  0.00    -0.384 N 
ATOM     23  H   UNL     1     -41.677  42.556  26.066  1.00  0.00     0.158 HD
ATOM     24  H   UNL     1     -41.558  43.336  27.550  1.00  0.00     0.158 HD
ENDBRANCH   8  22
ENDBRANCH   4   7
ENDBRANCH   1   4
BRANCH   1  25
ATOM     25  C   UNL     1     -47.624  35.018  27.512  1.00  0.00    -0.010 C 
ATOM     26  C   UNL     1     -47.942  34.440  26.131  1.00  0.00    -0.024 C 
ATOM     27  C   UNL     1     -46.200  34.501  27.745  1.00  0.00     0.085 C 
ATOM     28  H   UNL     1     -48.306  34.582  28.252  1.00  0.00     0.033 H 
ATOM     29  C   UNL     1     -47.452  32.992  26.248  1.00  0.00     0.064 C 
ATOM     30  H   UNL     1     -47.399  34.991  25.354  1.00  0.00     0.029 H 
ATOM     31  H   UNL     1     -49.012  34.491  25.901  1.00  0.00     0.029 H 
ATOM     32  C   UNL     1     -46.167  33.098  27.101  1.00  0.00     0.101 C 
ATOM     33  H   UNL     1     -45.475  35.151  27.239  1.00  0.00     0.063 H 
ATOM     34  H   UNL     1     -48.211  32.412  26.793  1.00  0.00     0.056 H 
ATOM     35  H   UNL     1     -45.250  32.985  26.510  1.00  0.00     0.065 H 
BRANCH  27  36
ATOM     36  O   UNL     1     -45.874  34.454  29.123  1.00  0.00    -0.390 OA
ATOM     37  H   UNL     1     -45.306  35.241  29.280  1.00  0.00     0.211 HD
ENDBRANCH  27  36
BRANCH  29  38
ATOM     38  N   UNL     1     -47.250  32.267  25.003  1.00  0.00    -0.327 N 
ATOM     39  C   UNL     1     -46.083  32.138  24.292  1.00  0.00     0.007 A 
ATOM     40  C   UNL     1     -48.271  31.643  24.316  1.00  0.00     0.145 A 
ATOM     41  C   UNL     1     -46.354  31.404  23.154  1.00  0.00    -0.031 A 
ATOM     42  H   UNL     1     -45.153  32.575  24.628  1.00  0.00     0.082 H 
ATOM     43  C   UNL     1     -47.739  31.088  23.162  1.00  0.00     0.061 A 
ATOM     44  N   UNL     1     -49.558  31.585  24.711  1.00  0.00    -0.218 NA
ATOM     45  H   UNL     1     -45.635  31.141  22.390  1.00  0.00     0.065 H 
ATOM     46  C   UNL     1     -48.628  30.401  22.324  1.00  0.00     0.136 A 
ATOM     47  C   UNL     1     -50.311  30.908  23.824  1.00  0.00     0.120 A 
ATOM     48  N   UNL     1     -49.923  30.316  22.678  1.00  0.00    -0.219 NA
ATOM     49  H   UNL     1     -51.368  30.824  24.062  1.00  0.00     0.106 H 
BRANCH  46  50
ATOM     50  N   UNL     1     -48.247  29.780  21.143  1.00  0.00    -0.383 N 
ATOM     51  H   UNL     1     -48.586  28.835  21.026  1.00  0.00     0.158 HD
ATOM     52  H   UNL     1     -48.368  30.405  20.354  1.00  0.00     0.158 HD
ENDBRANCH  46  50
ENDBRANCH  29  38
BRANCH  32  53
ATOM     53  O   UNL     1     -46.153  32.098  28.129  1.00  0.00    -0.388 OA
ATOM     54  H   UNL     1     -46.753  31.388  27.811  1.00  0.00     0.211 HD
ENDBRANCH  32  53
ENDBRANCH   1  25
TORSDOF 8
ENDMDL
MODEL 3
REMARK VINA RESULT:      -9.8      1.895      9.816
REMARK SMILES Nc1ccc2ccc(CC[C@H]3C[C@@H](n4ccc5c(N)ncnc54)[C@H](O)[C@@H]3O)cc2n1
REMARK SMILES IDX 10 1 9 4 8 7 2 8 3 9 30 10 4 11 29 13 5 14 28 16 6 17 7 19
REMARK SMILES IDX 1 22 11 25 12 26 26 27 13 29 24 32 27 36 14 38 15 39 23 40
REMARK SMILES IDX 16 41 17 43 22 44 18 46 21 47 20 48 19 50 25 53
REMARK H PARENT 10 2 10 3 9 5 9 6 3 12 4 15 28 18 6 20 7 21 1 23 1 24 11 28
REMARK H PARENT 12 30 12 31 26 33 13 34 24 35 27 37 15 42 16 45 21 49 19 51
REMARK H PARENT 19 52 25 54
REMARK Flexibility Score: inf
ROOT
ATOM      1  C   UNL     1     -47.507  36.458  26.978  1.00  0.00    -0.044 C 
ATOM      2  H   UNL     1     -46.788  36.698  26.184  1.00  0.00     0.027 H 
ATOM      3  H   UNL     1     -48.495  36.739  26.589  1.00  0.00     0.027 H 
ENDROOT
BRANCH   1   4
ATOM      4  C   UNL     1     -47.175  37.326  28.199  1.00  0.00    -0.027 C 
ATOM      5  H   UNL     1     -46.791  36.676  28.997  1.00  0.00     0.032 H 
ATOM      6  H   UNL     1     -48.081  37.781  28.613  1.00  0.00     0.032 H 
BRANCH   4   7
ATOM      7  C   UNL     1     -46.131  38.380  27.918  1.00  0.00    -0.046 A 
ATOM      8  C   UNL     1     -42.347  40.858  29.398  1.00  0.00     0.124 A 
ATOM      9  C   UNL     1     -42.283  41.587  28.223  1.00  0.00    -0.019 A 
ATOM     10  N   UNL     1     -43.277  39.917  29.628  1.00  0.00    -0.231 NA
ATOM     11  C   UNL     1     -43.218  41.327  27.228  1.00  0.00    -0.049 A 
ATOM     12  H   UNL     1     -41.529  42.353  28.086  1.00  0.00     0.066 H 
ATOM     13  C   UNL     1     -44.185  39.661  28.667  1.00  0.00     0.073 A 
ATOM     14  C   UNL     1     -44.195  40.348  27.437  1.00  0.00     0.000 A 
ATOM     15  H   UNL     1     -43.182  41.892  26.301  1.00  0.00     0.063 H 
ATOM     16  C   UNL     1     -45.155  38.689  28.880  1.00  0.00    -0.033 A 
ATOM     17  C   UNL     1     -45.162  40.049  26.463  1.00  0.00    -0.053 A 
ATOM     18  H   UNL     1     -45.151  38.160  29.832  1.00  0.00     0.065 H 
ATOM     19  C   UNL     1     -46.125  39.071  26.705  1.00  0.00    -0.058 A 
ATOM     20  H   UNL     1     -45.171  40.578  25.513  1.00  0.00     0.063 H 
ATOM     21  H   UNL     1     -46.867  38.851  25.941  1.00  0.00     0.063 H 
BRANCH   8  22
ATOM     22  N   UNL     1     -41.441  41.099  30.429  1.00  0.00    -0.384 N 
ATOM     23  H   UNL     1     -40.488  41.101  30.087  1.00  0.00     0.158 HD
ATOM     24  H   UNL     1     -41.591  40.365  31.119  1.00  0.00     0.158 HD
ENDBRANCH   8  22
ENDBRANCH   4   7
ENDBRANCH   1   4
BRANCH   1  25
ATOM     25  C   UNL     1     -47.486  34.945  27.235  1.00  0.00    -0.010 C 
ATOM     26  C   UNL     1     -48.311  34.179  26.199  1.00  0.00    -0.024 C 
ATOM     27  C   UNL     1     -46.107  34.294  27.077  1.00  0.00     0.085 C 
ATOM     28  H   UNL     1     -47.883  34.739  28.237  1.00  0.00     0.033 H 
ATOM     29  C   UNL     1     -47.900  32.723  26.446  1.00  0.00     0.064 C 
ATOM     30  H   UNL     1     -48.049  34.509  25.186  1.00  0.00     0.029 H 
ATOM     31  H   UNL     1     -49.387  34.329  26.338  1.00  0.00     0.029 H 
ATOM     32  C   UNL     1     -46.391  32.808  26.771  1.00  0.00     0.101 C 
ATOM     33  H   UNL     1     -45.573  34.745  26.230  1.00  0.00     0.063 H 
ATOM     34  H   UNL     1     -48.447  32.353  27.325  1.00  0.00     0.056 H 
ATOM     35  H   UNL     1     -45.755  32.474  25.943  1.00  0.00     0.065 H 
BRANCH  27  36
ATOM     36  O   UNL     1     -45.313  34.449  28.240  1.00  0.00    -0.390 OA
ATOM     37  H   UNL     1     -45.775  33.933  28.938  1.00  0.00     0.211 HD
ENDBRANCH  27  36
BRANCH  29  38
ATOM     38  N   UNL     1     -48.202  31.770  25.389  1.00  0.00    -0.327 N 
ATOM     39  C   UNL     1     -49.159  30.786  25.400  1.00  0.00     0.007 A 
ATOM     40  C   UNL     1     -47.487  31.694  24.211  1.00  0.00     0.145 A 
ATOM     41  C   UNL     1     -49.072  30.090  24.211  1.00  0.00    -0.031 A 
ATOM     42  H   UNL     1     -49.822  30.637  26.241  1.00  0.00     0.082 H 
ATOM     43  C   UNL     1     -48.013  30.659  23.452  1.00  0.00     0.061 A 
ATOM     44  N   UNL     1     -46.461  32.496  23.866  1.00  0.00    -0.218 NA
ATOM     45  H   UNL     1     -49.691  29.250  23.927  1.00  0.00     0.065 H 
ATOM     46  C   UNL     1     -47.417  30.424  22.206  1.00  0.00     0.136 A 
ATOM     47  C   UNL     1     -45.969  32.168  22.657  1.00  0.00     0.120 A 
ATOM     48  N   UNL     1     -46.388  31.200  21.819  1.00  0.00    -0.219 NA
ATOM     49  H   UNL     1     -45.128  32.760  22.308  1.00  0.00     0.106 H 
BRANCH  46  50
ATOM     50  N   UNL     1     -47.837  29.436  21.326  1.00  0.00    -0.383 N 
ATOM     51  H   UNL     1     -48.685  29.647  20.818  1.00  0.00     0.158 HD
ATOM     52  H   UNL     1     -47.058  29.086  20.781  1.00  0.00     0.158 HD
ENDBRANCH  46  50
ENDBRANCH  29  38
BRANCH  32  53
ATOM     53  O   UNL     1     -46.071  32.012  27.920  1.00  0.00    -0.388 OA
ATOM     54  H   UNL     1     -46.641  32.356  28.643  1.00  0.00     0.211 HD
ENDBRANCH  32  53
ENDBRANCH   1  25
TORSDOF 8
ENDMDL
MODEL 4
REMARK VINA RESULT:      -9.5      1.525      2.371
REMARK SMILES Nc1ccc2ccc(CC[C@H]3C[C@@H](n4ccc5c(N)ncnc54)[C@H](O)[C@@H]3O)cc2n1
REMARK SMILES IDX 10 1 9 4 8 7 2 8 3 9 30 10 4 11 29 13 5 14 28 16 6 17 7 19
REMARK SMILES IDX 1 22 11 25 12 26 26 27 13 29 24 32 27 36 14 38 15 39 23 40
REMARK SMILES IDX 16 41 17 43 22 44 18 46 21 47 20 48 19 50 25 53
REMARK H PARENT 10 2 10 3 9 5 9 6 3 12 4 15 28 18 6 20 7 21 1 23 1 24 11 28
REMARK H PARENT 12 30 12 31 26 33 13 34 24 35 27 37 15 42 16 45 21 49 19 51
REMARK H PARENT 19 52 25 54
REMARK Flexibility Score: inf
ROOT
ATOM      1  C   UNL     1     -47.220  36.051  26.505  1.00  0.00    -0.044 C 
ATOM      2  H   UNL     1     -47.882  36.511  25.759  1.00  0.00     0.027 H 
ATOM      3  H   UNL     1     -46.287  35.814  25.978  1.00  0.00     0.027 H 
ENDROOT
BRANCH   1   4
ATOM      4  C   UNL     1     -47.877  34.751  26.988  1.00  0.00    -0.027 C 
ATOM      5  H   UNL     1     -48.964  34.904  27.037  1.00  0.00     0.032 H 
ATOM      6  H   UNL     1     -47.574  34.517  28.013  1.00  0.00     0.032 H 
BRANCH   4   7
ATOM      7  C   UNL     1     -47.617  33.575  26.076  1.00  0.00    -0.046 A 
ATOM      8  C   UNL     1     -48.949  29.299  24.467  1.00  0.00     0.124 A 
ATOM      9  C   UNL     1     -47.852  29.201  23.628  1.00  0.00    -0.019 A 
ATOM     10  N   UNL     1     -49.170  30.356  25.264  1.00  0.00    -0.231 NA
ATOM     11  C   UNL     1     -46.942  30.251  23.598  1.00  0.00    -0.049 A 
ATOM     12  H   UNL     1     -47.700  28.320  23.015  1.00  0.00     0.066 H 
ATOM     13  C   UNL     1     -48.290  31.376  25.240  1.00  0.00     0.073 A 
ATOM     14  C   UNL     1     -47.149  31.368  24.414  1.00  0.00     0.000 A 
ATOM     15  H   UNL     1     -46.075  30.188  22.946  1.00  0.00     0.063 H 
ATOM     16  C   UNL     1     -48.500  32.482  26.053  1.00  0.00    -0.033 A 
ATOM     17  C   UNL     1     -46.257  32.453  24.422  1.00  0.00    -0.053 A 
ATOM     18  H   UNL     1     -49.380  32.489  26.695  1.00  0.00     0.065 H 
ATOM     19  C   UNL     1     -46.491  33.550  25.250  1.00  0.00    -0.058 A 
ATOM     20  H   UNL     1     -45.376  32.448  23.785  1.00  0.00     0.063 H 
ATOM     21  H   UNL     1     -45.792  34.382  25.245  1.00  0.00     0.063 H 
BRANCH   8  22
ATOM     22  N   UNL     1     -49.876  28.262  24.541  1.00  0.00    -0.384 N 
ATOM     23  H   UNL     1     -49.439  27.365  24.368  1.00  0.00     0.158 HD
ATOM     24  H   UNL     1     -50.593  28.470  23.848  1.00  0.00     0.158 HD
ENDBRANCH   8  22
ENDBRANCH   4   7
ENDBRANCH   1   4
BRANCH   1  25
ATOM     25  C   UNL     1     -46.922  37.073  27.611  1.00  0.00    -0.010 C 
ATOM     26  C   UNL     1     -45.490  37.604  27.525  1.00  0.00    -0.024 C 
ATOM     27  C   UNL     1     -47.739  38.366  27.515  1.00  0.00     0.085 C 
ATOM     28  H   UNL     1     -47.076  36.606  28.592  1.00  0.00     0.033 H 
ATOM     29  C   UNL     1     -45.512  38.801  28.483  1.00  0.00     0.064 C 
ATOM     30  H   UNL     1     -45.260  37.911  26.497  1.00  0.00     0.029 H 
ATOM     31  H   UNL     1     -44.754  36.852  27.829  1.00  0.00     0.029 H 
ATOM     32  C   UNL     1     -46.909  39.429  28.267  1.00  0.00     0.101 C 
ATOM     33  H   UNL     1     -47.849  38.666  26.466  1.00  0.00     0.063 H 
ATOM     34  H   UNL     1     -45.433  38.421  29.512  1.00  0.00     0.056 H 
ATOM     35  H   UNL     1     -46.875  40.354  27.680  1.00  0.00     0.065 H 
BRANCH  27  36
ATOM     36  O   UNL     1     -49.033  38.217  28.076  1.00  0.00    -0.390 OA
ATOM     37  H   UNL     1     -49.116  38.949  28.727  1.00  0.00     0.211 HD
ENDBRANCH  27  36
BRANCH  29  38
ATOM     38  N   UNL     1     -44.429  39.763  28.354  1.00  0.00    -0.327 N 
ATOM     39  C   UNL     1     -43.424  40.013  29.254  1.00  0.00     0.007 A 
ATOM     40  C   UNL     1     -44.308  40.627  27.286  1.00  0.00     0.145 A 
ATOM     41  C   UNL     1     -42.639  41.030  28.748  1.00  0.00    -0.031 A 
ATOM     42  H   UNL     1     -43.337  39.472  30.186  1.00  0.00     0.082 H 
ATOM     43  C   UNL     1     -43.194  41.426  27.500  1.00  0.00     0.061 A 
ATOM     44  N   UNL     1     -45.132  40.676  26.221  1.00  0.00    -0.218 NA
ATOM     45  H   UNL     1     -41.771  41.456  29.233  1.00  0.00     0.065 H 
ATOM     46  C   UNL     1     -42.898  42.376  26.514  1.00  0.00     0.136 A 
ATOM     47  C   UNL     1     -44.751  41.629  25.351  1.00  0.00     0.120 A 
ATOM     48  N   UNL     1     -43.694  42.461  25.432  1.00  0.00    -0.219 NA
ATOM     49  H   UNL     1     -45.371  41.743  24.467  1.00  0.00     0.106 H 
BRANCH  46  50
ATOM     50  N   UNL     1     -41.813  43.238  26.576  1.00  0.00    -0.383 N 
ATOM     51  H   UNL     1     -42.000  44.185  26.279  1.00  0.00     0.158 HD
ATOM     52  H   UNL     1     -41.317  43.128  27.454  1.00  0.00     0.158 HD
ENDBRANCH  46  50
ENDBRANCH  29  38
BRANCH  32  53
ATOM     53  O   UNL     1     -47.534  39.727  29.523  1.00  0.00    -0.388 OA
ATOM     54  H   UNL     1     -47.157  39.083  30.162  1.00  0.00     0.211 HD
ENDBRANCH  32  53
ENDBRANCH   1  25
TORSDOF 8
ENDMDL
MODEL 5
REMARK VINA RESULT:      -9.5      2.502     10.517
REMARK SMILES Nc1ccc2ccc(CC[C@H]3C[C@@H](n4ccc5c(N)ncnc54)[C@H](O)[C@@H]3O)cc2n1
REMARK SMILES IDX 10 1 9 4 8 7 2 8 3 9 30 10 4 11 29 13 5 14 28 16 6 17 7 19
REMARK SMILES IDX 1 22 11 25 12 26 26 27 13 29 24 32 27 36 14 38 15 39 23 40
REMARK SMILES IDX 16 41 17 43 22 44 18 46 21 47 20 48 19 50 25 53
REMARK H PARENT 10 2 10 3 9 5 9 6 3 12 4 15 28 18 6 20 7 21 1 23 1 24 11 28
REMARK H PARENT 12 30 12 31 26 33 13 34 24 35 27 37 15 42 16 45 21 49 19 51
REMARK H PARENT 19 52 25 54
REMARK Flexibility Score: inf
ROOT
ATOM      1  C   UNL     1     -48.157  35.776  27.131  1.00  0.00    -0.044 C 
ATOM      2  H   UNL     1     -47.909  36.388  26.253  1.00  0.00     0.027 H 
ATOM      3  H   UNL     1     -49.236  35.898  27.291  1.00  0.00     0.027 H 
ENDROOT
BRANCH   1   4
ATOM      4  C   UNL     1     -47.395  36.341  28.337  1.00  0.00    -0.027 C 
ATOM      5  H   UNL     1     -46.729  35.560  28.728  1.00  0.00     0.032 H 
ATOM      6  H   UNL     1     -48.081  36.570  29.159  1.00  0.00     0.032 H 
BRANCH   4   7
ATOM      7  C   UNL     1     -46.548  37.545  28.000  1.00  0.00    -0.046 A 
ATOM      8  C   UNL     1     -42.990  40.477  29.175  1.00  0.00     0.124 A 
ATOM      9  C   UNL     1     -43.171  41.256  28.046  1.00  0.00    -0.019 A 
ATOM     10  N   UNL     1     -43.746  39.404  29.456  1.00  0.00    -0.231 NA
ATOM     11  C   UNL     1     -44.176  40.906  27.151  1.00  0.00    -0.049 A 
ATOM     12  H   UNL     1     -42.552  42.128  27.867  1.00  0.00     0.066 H 
ATOM     13  C   UNL     1     -44.721  39.060  28.593  1.00  0.00     0.073 A 
ATOM     14  C   UNL     1     -44.975  39.789  27.413  1.00  0.00     0.000 A 
ATOM     15  H   UNL     1     -44.332  41.509  26.261  1.00  0.00     0.063 H 
ATOM     16  C   UNL     1     -45.513  37.951  28.859  1.00  0.00    -0.033 A 
ATOM     17  C   UNL     1     -46.005  39.395  26.542  1.00  0.00    -0.053 A 
ATOM     18  H   UNL     1     -45.320  37.389  29.771  1.00  0.00     0.065 H 
ATOM     19  C   UNL     1     -46.786  38.279  26.836  1.00  0.00    -0.058 A 
ATOM     20  H   UNL     1     -46.203  39.957  25.633  1.00  0.00     0.063 H 
ATOM     21  H   UNL     1     -47.579  37.987  26.152  1.00  0.00     0.063 H 
BRANCH   8  22
ATOM     22  N   UNL     1     -42.006  40.803  30.107  1.00  0.00    -0.384 N 
ATOM     23  H   UNL     1     -41.404  40.011  30.298  1.00  0.00     0.158 HD
ATOM     24  H   UNL     1     -42.496  41.113  30.944  1.00  0.00     0.158 HD
ENDBRANCH   8  22
ENDBRANCH   4   7
ENDBRANCH   1   4
BRANCH   1  25
ATOM     25  C   UNL     1     -47.864  34.302  26.814  1.00  0.00    -0.010 C 
ATOM     26  C   UNL     1     -49.102  33.578  26.281  1.00  0.00    -0.024 C 
ATOM     27  C   UNL     1     -46.863  34.086  25.674  1.00  0.00     0.085 C 
ATOM     28  H   UNL     1     -47.512  33.797  27.721  1.00  0.00     0.033 H 
ATOM     29  C   UNL     1     -48.523  32.263  25.746  1.00  0.00     0.064 C 
ATOM     30  H   UNL     1     -49.574  34.167  25.485  1.00  0.00     0.029 H 
ATOM     31  H   UNL     1     -49.847  33.406  27.066  1.00  0.00     0.029 H 
ATOM     32  C   UNL     1     -47.166  32.674  25.128  1.00  0.00     0.101 C 
ATOM     33  H   UNL     1     -47.029  34.826  24.880  1.00  0.00     0.063 H 
ATOM     34  H   UNL     1     -48.351  31.589  26.598  1.00  0.00     0.056 H 
ATOM     35  H   UNL     1     -47.185  32.698  24.032  1.00  0.00     0.065 H 
BRANCH  27  36
ATOM     36  O   UNL     1     -45.522  34.201  26.119  1.00  0.00    -0.390 OA
ATOM     37  H   UNL     1     -45.567  34.754  26.930  1.00  0.00     0.211 HD
ENDBRANCH  27  36
BRANCH  29  38
ATOM     38  N   UNL     1     -49.359  31.504  24.830  1.00  0.00    -0.327 N 
ATOM     39  C   UNL     1     -50.409  31.971  24.078  1.00  0.00     0.007 A 
ATOM     40  C   UNL     1     -49.235  30.144  24.641  1.00  0.00     0.145 A 
ATOM     41  C   UNL     1     -50.945  30.905  23.384  1.00  0.00    -0.031 A 
ATOM     42  H   UNL     1     -50.710  33.009  24.091  1.00  0.00     0.082 H 
ATOM     43  C   UNL     1     -50.207  29.742  23.736  1.00  0.00     0.061 A 
ATOM     44  N   UNL     1     -48.320  29.352  25.233  1.00  0.00    -0.218 NA
ATOM     45  H   UNL     1     -51.790  30.954  22.710  1.00  0.00     0.065 H 
ATOM     46  C   UNL     1     -50.242  28.380  23.409  1.00  0.00     0.136 A 
ATOM     47  C   UNL     1     -48.459  28.070  24.846  1.00  0.00     0.120 A 
ATOM     48  N   UNL     1     -49.347  27.551  23.977  1.00  0.00    -0.219 NA
ATOM     49  H   UNL     1     -47.765  27.361  25.289  1.00  0.00     0.106 H 
BRANCH  46  50
ATOM     50  N   UNL     1     -51.144  27.827  22.512  1.00  0.00    -0.383 N 
ATOM     51  H   UNL     1     -50.849  27.836  21.546  1.00  0.00     0.158 HD
ATOM     52  H   UNL     1     -51.511  26.951  22.865  1.00  0.00     0.158 HD
ENDBRANCH  46  50
ENDBRANCH  29  38
BRANCH  32  53
ATOM     53  O   UNL     1     -46.127  31.771  25.531  1.00  0.00    -0.388 OA
ATOM     54  H   UNL     1     -46.098  31.826  26.512  1.00  0.00     0.211 HD
ENDBRANCH  32  53
ENDBRANCH   1  25
TORSDOF 8
ENDMDL
MODEL 6
REMARK VINA RESULT:      -9.4      2.092      2.756
REMARK SMILES Nc1ccc2ccc(CC[C@H]3C[C@@H](n4ccc5c(N)ncnc54)[C@H](O)[C@@H]3O)cc2n1
REMARK SMILES IDX 10 1 9 4 8 7 2 8 3 9 30 10 4 11 29 13 5 14 28 16 6 17 7 19
REMARK SMILES IDX 1 22 11 25 12 26 26 27 13 29 24 32 27 36 14 38 15 39 23 40
REMARK SMILES IDX 16 41 17 43 22 44 18 46 21 47 20 48 19 50 25 53
REMARK H PARENT 10 2 10 3 9 5 9 6 3 12 4 15 28 18 6 20 7 21 1 23 1 24 11 28
REMARK H PARENT 12 30 12 31 26 33 13 34 24 35 27 37 15 42 16 45 21 49 19 51
REMARK H PARENT 19 52 25 54
REMARK Flexibility Score: inf
ROOT
ATOM      1  C   UNL     1     -45.922  34.826  27.312  1.00  0.00    -0.044 C 
ATOM      2  H   UNL     1     -44.945  34.478  26.950  1.00  0.00     0.027 H 
ATOM      3  H   UNL     1     -46.268  34.071  28.030  1.00  0.00     0.027 H 
ENDROOT
BRANCH   1   4
ATOM      4  C   UNL     1     -46.884  34.873  26.117  1.00  0.00    -0.027 C 
ATOM      5  H   UNL     1     -46.408  35.438  25.305  1.00  0.00     0.032 H 
ATOM      6  H   UNL     1     -47.789  35.437  26.366  1.00  0.00     0.032 H 
BRANCH   4   7
ATOM      7  C   UNL     1     -47.241  33.506  25.583  1.00  0.00    -0.046 A 
ATOM      8  C   UNL     1     -46.145  29.817  22.783  1.00  0.00     0.124 A 
ATOM      9  C   UNL     1     -47.301  29.134  23.120  1.00  0.00    -0.019 A 
ATOM     10  N   UNL     1     -45.839  31.028  23.275  1.00  0.00    -0.231 NA
ATOM     11  C   UNL     1     -48.182  29.721  24.021  1.00  0.00    -0.049 A 
ATOM     12  H   UNL     1     -47.520  28.167  22.684  1.00  0.00     0.066 H 
ATOM     13  C   UNL     1     -46.689  31.603  24.147  1.00  0.00     0.073 A 
ATOM     14  C   UNL     1     -47.886  30.980  24.554  1.00  0.00     0.000 A 
ATOM     15  H   UNL     1     -49.094  29.199  24.294  1.00  0.00     0.063 H 
ATOM     16  C   UNL     1     -46.392  32.854  24.673  1.00  0.00    -0.033 A 
ATOM     17  C   UNL     1     -48.745  31.617  25.466  1.00  0.00    -0.053 A 
ATOM     18  H   UNL     1     -45.469  33.338  24.356  1.00  0.00     0.065 H 
ATOM     19  C   UNL     1     -48.423  32.874  25.976  1.00  0.00    -0.058 A 
ATOM     20  H   UNL     1     -49.669  31.138  25.781  1.00  0.00     0.063 H 
ATOM     21  H   UNL     1     -49.097  33.354  26.680  1.00  0.00     0.063 H 
BRANCH   8  22
ATOM     22  N   UNL     1     -45.244  29.273  21.871  1.00  0.00    -0.384 N 
ATOM     23  H   UNL     1     -45.695  28.595  21.267  1.00  0.00     0.158 HD
ATOM     24  H   UNL     1     -44.500  28.848  22.422  1.00  0.00     0.158 HD
ENDBRANCH   8  22
ENDBRANCH   4   7
ENDBRANCH   1   4
BRANCH   1  25
ATOM     25  C   UNL     1     -45.738  36.163  28.045  1.00  0.00    -0.010 C 
ATOM     26  C   UNL     1     -46.097  37.355  27.156  1.00  0.00    -0.024 C 
ATOM     27  C   UNL     1     -46.682  36.368  29.236  1.00  0.00     0.085 C 
ATOM     28  H   UNL     1     -44.696  36.258  28.374  1.00  0.00     0.033 H 
ATOM     29  C   UNL     1     -46.150  38.519  28.152  1.00  0.00     0.064 C 
ATOM     30  H   UNL     1     -47.068  37.189  26.673  1.00  0.00     0.029 H 
ATOM     31  H   UNL     1     -45.351  37.522  26.371  1.00  0.00     0.029 H 
ATOM     32  C   UNL     1     -46.773  37.897  29.423  1.00  0.00     0.101 C 
ATOM     33  H   UNL     1     -47.677  35.970  29.000  1.00  0.00     0.063 H 
ATOM     34  H   UNL     1     -45.120  38.839  28.364  1.00  0.00     0.056 H 
ATOM     35  H   UNL     1     -47.820  38.188  29.573  1.00  0.00     0.065 H 
BRANCH  27  36
ATOM     36  O   UNL     1     -46.206  35.722  30.404  1.00  0.00    -0.390 OA
ATOM     37  H   UNL     1     -46.324  36.379  31.126  1.00  0.00     0.211 HD
ENDBRANCH  27  36
BRANCH  29  38
ATOM     38  N   UNL     1     -46.835  39.724  27.713  1.00  0.00    -0.327 N 
ATOM     39  C   UNL     1     -48.149  40.061  27.924  1.00  0.00     0.007 A 
ATOM     40  C   UNL     1     -46.236  40.697  26.940  1.00  0.00     0.145 A 
ATOM     41  C   UNL     1     -48.386  41.270  27.301  1.00  0.00    -0.031 A 
ATOM     42  H   UNL     1     -48.824  39.427  28.483  1.00  0.00     0.082 H 
ATOM     43  C   UNL     1     -47.178  41.680  26.674  1.00  0.00     0.061 A 
ATOM     44  N   UNL     1     -44.954  40.687  26.526  1.00  0.00    -0.218 NA
ATOM     45  H   UNL     1     -49.333  41.793  27.282  1.00  0.00     0.065 H 
ATOM     46  C   UNL     1     -46.756  42.766  25.896  1.00  0.00     0.136 A 
ATOM     47  C   UNL     1     -44.671  41.775  25.784  1.00  0.00     0.120 A 
ATOM     48  N   UNL     1     -45.483  42.799  25.460  1.00  0.00    -0.219 NA
ATOM     49  H   UNL     1     -43.657  41.838  25.399  1.00  0.00     0.106 H 
BRANCH  46  50
ATOM     50  N   UNL     1     -47.575  43.833  25.556  1.00  0.00    -0.383 N 
ATOM     51  H   UNL     1     -48.417  43.920  26.107  1.00  0.00     0.158 HD
ATOM     52  H   UNL     1     -47.029  44.677  25.426  1.00  0.00     0.158 HD
ENDBRANCH  46  50
ENDBRANCH  29  38
BRANCH  32  53
ATOM     53  O   UNL     1     -46.038  38.282  30.593  1.00  0.00    -0.388 OA
ATOM     54  H   UNL     1     -45.473  39.036  30.310  1.00  0.00     0.211 HD
ENDBRANCH  32  53
ENDBRANCH   1  25
TORSDOF 8
ENDMDL
MODEL 7
REMARK VINA RESULT:      -9.1      3.078      4.960
REMARK SMILES Nc1ccc2ccc(CC[C@H]3C[C@@H](n4ccc5c(N)ncnc54)[C@H](O)[C@@H]3O)cc2n1
REMARK SMILES IDX 10 1 9 4 8 7 2 8 3 9 30 10 4 11 29 13 5 14 28 16 6 17 7 19
REMARK SMILES IDX 1 22 11 25 12 26 26 27 13 29 24 32 27 36 14 38 15 39 23 40
REMARK SMILES IDX 16 41 17 43 22 44 18 46 21 47 20 48 19 50 25 53
REMARK H PARENT 10 2 10 3 9 5 9 6 3 12 4 15 28 18 6 20 7 21 1 23 1 24 11 28
REMARK H PARENT 12 30 12 31 26 33 13 34 24 35 27 37 15 42 16 45 21 49 19 51
REMARK H PARENT 19 52 25 54
REMARK Flexibility Score: inf
ROOT
ATOM      1  C   UNL     1     -44.850  38.952  28.693  1.00  0.00    -0.044 C 
ATOM      2  H   UNL     1     -44.526  37.924  28.482  1.00  0.00     0.027 H 
ATOM      3  H   UNL     1     -44.913  39.032  29.786  1.00  0.00     0.027 H 
ENDROOT
BRANCH   1   4
ATOM      4  C   UNL     1     -46.246  39.147  28.086  1.00  0.00    -0.027 C 
ATOM      5  H   UNL     1     -46.150  39.755  27.177  1.00  0.00     0.032 H 
ATOM      6  H   UNL     1     -46.885  39.731  28.756  1.00  0.00     0.032 H 
BRANCH   4   7
ATOM      7  C   UNL     1     -46.919  37.849  27.706  1.00  0.00    -0.046 A 
ATOM      8  C   UNL     1     -46.603  33.510  25.777  1.00  0.00     0.124 A 
ATOM      9  C   UNL     1     -47.949  33.252  25.978  1.00  0.00    -0.019 A 
ATOM     10  N   UNL     1     -46.018  34.666  26.130  1.00  0.00    -0.231 NA
ATOM     11  C   UNL     1     -48.730  34.229  26.584  1.00  0.00    -0.049 A 
ATOM     12  H   UNL     1     -48.386  32.313  25.659  1.00  0.00     0.066 H 
ATOM     13  C   UNL     1     -46.771  35.616  26.716  1.00  0.00     0.073 A 
ATOM     14  C   UNL     1     -48.146  35.440  26.967  1.00  0.00     0.000 A 
ATOM     15  H   UNL     1     -49.788  34.042  26.746  1.00  0.00     0.063 H 
ATOM     16  C   UNL     1     -46.186  36.819  27.094  1.00  0.00    -0.033 A 
ATOM     17  C   UNL     1     -48.893  36.460  27.581  1.00  0.00    -0.053 A 
ATOM     18  H   UNL     1     -45.124  36.958  26.898  1.00  0.00     0.065 H 
ATOM     19  C   UNL     1     -48.282  37.657  27.947  1.00  0.00    -0.058 A 
ATOM     20  H   UNL     1     -49.955  36.326  27.775  1.00  0.00     0.063 H 
ATOM     21  H   UNL     1     -48.873  38.437  28.421  1.00  0.00     0.063 H 
BRANCH   8  22
ATOM     22  N   UNL     1     -45.788  32.566  25.158  1.00  0.00    -0.384 N 
ATOM     23  H   UNL     1     -45.349  31.957  25.838  1.00  0.00     0.158 HD
ATOM     24  H   UNL     1     -45.098  33.091  24.623  1.00  0.00     0.158 HD
ENDBRANCH   8  22
ENDBRANCH   4   7
ENDBRANCH   1   4
BRANCH   1  25
ATOM     25  C   UNL     1     -43.781  39.929  28.184  1.00  0.00    -0.010 C 
ATOM     26  C   UNL     1     -44.390  41.045  27.332  1.00  0.00    -0.024 C 
ATOM     27  C   UNL     1     -43.077  40.729  29.286  1.00  0.00     0.085 C 
ATOM     28  H   UNL     1     -43.040  39.382  27.588  1.00  0.00     0.033 H 
ATOM     29  C   UNL     1     -43.235  42.045  27.205  1.00  0.00     0.064 C 
ATOM     30  H   UNL     1     -45.255  41.485  27.843  1.00  0.00     0.029 H 
ATOM     31  H   UNL     1     -44.723  40.680  26.353  1.00  0.00     0.029 H 
ATOM     32  C   UNL     1     -42.547  42.001  28.589  1.00  0.00     0.101 C 
ATOM     33  H   UNL     1     -43.797  41.013  30.064  1.00  0.00     0.063 H 
ATOM     34  H   UNL     1     -42.541  41.677  26.436  1.00  0.00     0.056 H 
ATOM     35  H   UNL     1     -42.770  42.879  29.206  1.00  0.00     0.065 H 
BRANCH  27  36
ATOM     36  O   UNL     1     -42.033  39.987  29.892  1.00  0.00    -0.390 OA
ATOM     37  H   UNL     1     -41.980  39.151  29.379  1.00  0.00     0.211 HD
ENDBRANCH  27  36
BRANCH  29  38
ATOM     38  N   UNL     1     -43.581  43.394  26.784  1.00  0.00    -0.327 N 
ATOM     39  C   UNL     1     -43.867  44.470  27.586  1.00  0.00     0.007 A 
ATOM     40  C   UNL     1     -43.733  43.759  25.463  1.00  0.00     0.145 A 
ATOM     41  C   UNL     1     -44.181  45.540  26.771  1.00  0.00    -0.031 A 
ATOM     42  H   UNL     1     -43.840  44.408  28.666  1.00  0.00     0.082 H 
ATOM     43  C   UNL     1     -44.099  45.096  25.424  1.00  0.00     0.061 A 
ATOM     44  N   UNL     1     -43.550  42.950  24.402  1.00  0.00    -0.218 NA
ATOM     45  H   UNL     1     -44.458  46.529  27.110  1.00  0.00     0.065 H 
ATOM     46  C   UNL     1     -44.300  45.660  24.156  1.00  0.00     0.136 A 
ATOM     47  C   UNL     1     -43.778  43.600  23.245  1.00  0.00     0.120 A 
ATOM     48  N   UNL     1     -44.127  44.888  23.066  1.00  0.00    -0.219 NA
ATOM     49  H   UNL     1     -43.663  43.014  22.338  1.00  0.00     0.106 H 
BRANCH  46  50
ATOM     50  N   UNL     1     -44.655  46.985  23.950  1.00  0.00    -0.383 N 
ATOM     51  H   UNL     1     -43.885  47.610  23.759  1.00  0.00     0.158 HD
ATOM     52  H   UNL     1     -45.456  47.050  23.332  1.00  0.00     0.158 HD
ENDBRANCH  46  50
ENDBRANCH  29  38
BRANCH  32  53
ATOM     53  O   UNL     1     -41.122  41.912  28.448  1.00  0.00    -0.388 OA
ATOM     54  H   UNL     1     -40.954  41.034  28.040  1.00  0.00     0.211 HD
ENDBRANCH  32  53
ENDBRANCH   1  25
TORSDOF 8
ENDMDL
