MODEL 1
REMARK VINA RESULT:      -9.3      0.000      0.000
REMARK SMILES Cc1cc(NCCN(C)C)c2ccc(OCc3cncc(-n4cc(Cl)c5c(N)ncnc54)c3)cc2n1
REMARK SMILES IDX 2 1 3 2 4 3 11 4 12 5 13 6 14 7 34 8 35 9 36 10 1 15 5 19
REMARK SMILES IDX 6 21 7 24 8 27 9 28 10 32 15 36 16 37 17 40 18 41 33 42
REMARK SMILES IDX 19 43 21 45 20 47 22 49 23 50 32 51 24 52 26 54 31 55 25 56
REMARK SMILES IDX 27 57 30 58 29 59 28 61
REMARK H PARENT 3 11 12 12 13 13 34 14 1 16 1 17 1 18 5 20 6 22 6 23 7 25 7 26
REMARK H PARENT 9 29 9 30 9 31 10 33 10 34 10 35 16 38 16 39 18 44 33 46 20 48
REMARK H PARENT 23 53 30 60 28 62 28 63
REMARK Flexibility Score: inf
ROOT
ATOM      1  C   UNL     1     -46.490  31.034  22.026  1.00  0.00     0.040 A 
ATOM      2  C   UNL     1     -47.470  30.061  22.138  1.00  0.00    -0.017 A 
ATOM      3  C   UNL     1     -48.221  29.970  23.313  1.00  0.00     0.045 A 
ATOM      4  C   UNL     1     -47.943  30.871  24.376  1.00  0.00     0.024 A 
ATOM      5  C   UNL     1     -48.611  30.879  25.626  1.00  0.00    -0.047 A 
ATOM      6  C   UNL     1     -48.329  31.840  26.594  1.00  0.00    -0.019 A 
ATOM      7  C   UNL     1     -47.384  32.817  26.321  1.00  0.00     0.122 A 
ATOM      8  C   UNL     1     -46.662  32.781  25.131  1.00  0.00     0.007 A 
ATOM      9  C   UNL     1     -46.934  31.838  24.151  1.00  0.00     0.076 A 
ATOM     10  N   UNL     1     -46.233  31.921  23.011  1.00  0.00    -0.253 NA
ATOM     11  H   UNL     1     -47.643  29.363  21.325  1.00  0.00     0.066 H 
ATOM     12  H   UNL     1     -49.382  30.148  25.857  1.00  0.00     0.063 H 
ATOM     13  H   UNL     1     -48.876  31.849  27.532  1.00  0.00     0.066 H 
ATOM     14  H   UNL     1     -45.885  33.516  24.942  1.00  0.00     0.069 H 
ENDROOT
BRANCH   1  15
ATOM     15  C   UNL     1     -45.673  31.139  20.774  1.00  0.00    -0.022 C 
ATOM     16  H   UNL     1     -44.635  31.382  21.021  1.00  0.00     0.030 H 
ATOM     17  H   UNL     1     -46.061  31.926  20.121  1.00  0.00     0.030 H 
ATOM     18  H   UNL     1     -45.701  30.194  20.224  1.00  0.00     0.030 H 
ENDBRANCH   1  15
BRANCH   3  19
ATOM     19  N   UNL     1     -49.251  28.998  23.373  1.00  0.00    -0.383 N 
ATOM     20  H   UNL     1     -49.850  29.029  22.547  1.00  0.00     0.160 HD
BRANCH  19  21
ATOM     21  C   UNL     1     -48.768  27.611  23.517  1.00  0.00     0.027 C 
ATOM     22  H   UNL     1     -49.511  26.873  23.194  1.00  0.00     0.050 H 
ATOM     23  H   UNL     1     -47.908  27.488  22.851  1.00  0.00     0.050 H 
BRANCH  21  24
ATOM     24  C   UNL     1     -48.342  27.316  24.976  1.00  0.00     0.015 C 
ATOM     25  H   UNL     1     -49.210  26.960  25.545  1.00  0.00     0.045 H 
ATOM     26  H   UNL     1     -48.043  28.274  25.421  1.00  0.00     0.045 H 
BRANCH  24  27
ATOM     27  N   UNL     1     -47.207  26.370  25.093  1.00  0.00    -0.308 NA
BRANCH  27  28
ATOM     28  C   UNL     1     -46.046  26.897  24.368  1.00  0.00    -0.014 C 
ATOM     29  H   UNL     1     -45.800  27.921  24.668  1.00  0.00     0.039 H 
ATOM     30  H   UNL     1     -46.231  26.883  23.289  1.00  0.00     0.039 H 
ATOM     31  H   UNL     1     -45.166  26.266  24.538  1.00  0.00     0.039 H 
ENDBRANCH  27  28
BRANCH  27  32
ATOM     32  C   UNL     1     -46.845  26.133  26.493  1.00  0.00    -0.014 C 
ATOM     33  H   UNL     1     -46.756  25.064  26.722  1.00  0.00     0.039 H 
ATOM     34  H   UNL     1     -45.898  26.621  26.746  1.00  0.00     0.039 H 
ATOM     35  H   UNL     1     -47.597  26.566  27.162  1.00  0.00     0.039 H 
ENDBRANCH  27  32
ENDBRANCH  24  27
ENDBRANCH  21  24
ENDBRANCH  19  21
ENDBRANCH   3  19
BRANCH   7  36
ATOM     36  O   UNL     1     -47.216  33.810  27.250  1.00  0.00    -0.489 OA
BRANCH  36  37
ATOM     37  C   UNL     1     -45.990  34.544  27.067  1.00  0.00     0.115 C 
ATOM     38  H   UNL     1     -45.847  34.835  26.019  1.00  0.00     0.076 H 
ATOM     39  H   UNL     1     -45.170  33.849  27.291  1.00  0.00     0.076 H 
BRANCH  37  40
ATOM     40  C   UNL     1     -45.893  35.734  27.989  1.00  0.00     0.010 A 
ATOM     41  C   UNL     1     -46.467  35.713  29.249  1.00  0.00     0.034 A 
ATOM     42  C   UNL     1     -45.302  36.934  27.565  1.00  0.00    -0.028 A 
ATOM     43  N   UNL     1     -46.474  36.772  30.085  1.00  0.00    -0.262 NA
ATOM     44  H   UNL     1     -46.964  34.825  29.633  1.00  0.00     0.084 H 
ATOM     45  C   UNL     1     -45.334  38.074  28.378  1.00  0.00     0.066 A 
ATOM     46  H   UNL     1     -44.878  36.956  26.566  1.00  0.00     0.065 H 
ATOM     47  C   UNL     1     -45.918  37.927  29.632  1.00  0.00     0.051 A 
ATOM     48  H   UNL     1     -45.976  38.724  30.363  1.00  0.00     0.086 H 
BRANCH  45  49
ATOM     49  N   UNL     1     -44.827  39.329  27.911  1.00  0.00    -0.298 N 
ATOM     50  C   UNL     1     -45.301  40.016  26.803  1.00  0.00     0.031 A 
ATOM     51  C   UNL     1     -43.819  40.115  28.477  1.00  0.00     0.151 A 
ATOM     52  C   UNL     1     -44.623  41.203  26.679  1.00  0.00     0.072 A 
ATOM     53  H   UNL     1     -46.090  39.623  26.177  1.00  0.00     0.084 H 
ATOM     54  C   UNL     1     -43.679  41.280  27.724  1.00  0.00     0.080 A 
ATOM     55  N   UNL     1     -43.109  39.831  29.587  1.00  0.00    -0.218 NA
ATOM     56  Cl  UNL     1     -44.901  42.381  25.485  1.00  0.00    -0.082 Cl
ATOM     57  C   UNL     1     -42.713  42.205  28.151  1.00  0.00     0.137 A 
ATOM     58  C   UNL     1     -42.222  40.783  29.900  1.00  0.00     0.120 A 
ATOM     59  N   UNL     1     -41.996  41.939  29.257  1.00  0.00    -0.219 NA
ATOM     60  H   UNL     1     -41.615  40.603  30.782  1.00  0.00     0.106 H 
BRANCH  57  61
ATOM     61  N   UNL     1     -42.447  43.398  27.508  1.00  0.00    -0.383 N 
ATOM     62  H   UNL     1     -43.197  43.693  26.896  1.00  0.00     0.158 HD
ATOM     63  H   UNL     1     -41.495  43.566  27.210  1.00  0.00     0.158 HD
ENDBRANCH  57  61
ENDBRANCH  45  49
ENDBRANCH  37  40
ENDBRANCH  36  37
ENDBRANCH   7  36
TORSDOF 12
ENDMDL
MODEL 2
REMARK VINA RESULT:      -9.3      1.586      2.185
REMARK SMILES Cc1cc(NCCN(C)C)c2ccc(OCc3cncc(-n4cc(Cl)c5c(N)ncnc54)c3)cc2n1
REMARK SMILES IDX 2 1 3 2 4 3 11 4 12 5 13 6 14 7 34 8 35 9 36 10 1 15 5 19
REMARK SMILES IDX 6 21 7 24 8 27 9 28 10 32 15 36 16 37 17 40 18 41 33 42
REMARK SMILES IDX 19 43 21 45 20 47 22 49 23 50 32 51 24 52 26 54 31 55 25 56
REMARK SMILES IDX 27 57 30 58 29 59 28 61
REMARK H PARENT 3 11 12 12 13 13 34 14 1 16 1 17 1 18 5 20 6 22 6 23 7 25 7 26
REMARK H PARENT 9 29 9 30 9 31 10 33 10 34 10 35 16 38 16 39 18 44 33 46 20 48
REMARK H PARENT 23 53 30 60 28 62 28 63
REMARK Flexibility Score: inf
ROOT
ATOM      1  C   UNL     1     -46.493  31.159  21.816  1.00  0.00     0.040 A 
ATOM      2  C   UNL     1     -47.501  30.209  21.849  1.00  0.00    -0.017 A 
ATOM      3  C   UNL     1     -48.250  30.040  23.017  1.00  0.00     0.045 A 
ATOM      4  C   UNL     1     -47.941  30.838  24.152  1.00  0.00     0.024 A 
ATOM      5  C   UNL     1     -48.604  30.758  25.402  1.00  0.00    -0.047 A 
ATOM      6  C   UNL     1     -48.288  31.622  26.447  1.00  0.00    -0.019 A 
ATOM      7  C   UNL     1     -47.315  32.591  26.254  1.00  0.00     0.122 A 
ATOM      8  C   UNL     1     -46.600  32.636  25.060  1.00  0.00     0.007 A 
ATOM      9  C   UNL     1     -46.904  31.789  24.004  1.00  0.00     0.076 A 
ATOM     10  N   UNL     1     -46.205  31.949  22.871  1.00  0.00    -0.253 NA
ATOM     11  H   UNL     1     -47.698  29.590  20.981  1.00  0.00     0.066 H 
ATOM     12  H   UNL     1     -49.395  30.033  25.574  1.00  0.00     0.063 H 
ATOM     13  H   UNL     1     -48.832  31.567  27.386  1.00  0.00     0.066 H 
ATOM     14  H   UNL     1     -45.801  33.361  24.930  1.00  0.00     0.069 H 
ENDROOT
BRANCH   1  15
ATOM     15  C   UNL     1     -45.677  31.346  20.572  1.00  0.00    -0.022 C 
ATOM     16  H   UNL     1     -45.830  30.503  19.890  1.00  0.00     0.030 H 
ATOM     17  H   UNL     1     -44.611  31.402  20.810  1.00  0.00     0.030 H 
ATOM     18  H   UNL     1     -45.964  32.273  20.068  1.00  0.00     0.030 H 
ENDBRANCH   1  15
BRANCH   3  19
ATOM     19  N   UNL     1     -49.308  29.097  23.000  1.00  0.00    -0.383 N 
ATOM     20  H   UNL     1     -49.670  28.951  22.056  1.00  0.00     0.160 HD
BRANCH  19  21
ATOM     21  C   UNL     1     -48.951  27.774  23.546  1.00  0.00     0.027 C 
ATOM     22  H   UNL     1     -48.232  27.241  22.914  1.00  0.00     0.050 H 
ATOM     23  H   UNL     1     -48.450  27.936  24.506  1.00  0.00     0.050 H 
BRANCH  21  24
ATOM     24  C   UNL     1     -50.210  26.898  23.757  1.00  0.00     0.015 C 
ATOM     25  H   UNL     1     -50.395  26.301  22.854  1.00  0.00     0.045 H 
ATOM     26  H   UNL     1     -51.061  27.582  23.864  1.00  0.00     0.045 H 
BRANCH  24  27
ATOM     27  N   UNL     1     -50.148  26.034  24.961  1.00  0.00    -0.308 NA
BRANCH  27  28
ATOM     28  C   UNL     1     -48.789  26.049  25.512  1.00  0.00    -0.014 C 
ATOM     29  H   UNL     1     -48.337  25.051  25.522  1.00  0.00     0.039 H 
ATOM     30  H   UNL     1     -48.795  26.440  26.534  1.00  0.00     0.039 H 
ATOM     31  H   UNL     1     -48.143  26.716  24.930  1.00  0.00     0.039 H 
ENDBRANCH  27  28
BRANCH  27  32
ATOM     32  C   UNL     1     -51.099  26.471  25.986  1.00  0.00    -0.014 C 
ATOM     33  H   UNL     1     -52.140  26.339  25.669  1.00  0.00     0.039 H 
ATOM     34  H   UNL     1     -50.950  25.924  26.923  1.00  0.00     0.039 H 
ATOM     35  H   UNL     1     -50.945  27.529  26.227  1.00  0.00     0.039 H 
ENDBRANCH  27  32
ENDBRANCH  24  27
ENDBRANCH  21  24
ENDBRANCH  19  21
ENDBRANCH   3  19
BRANCH   7  36
ATOM     36  O   UNL     1     -47.114  33.495  27.263  1.00  0.00    -0.489 OA
BRANCH  36  37
ATOM     37  C   UNL     1     -46.129  34.491  26.931  1.00  0.00     0.115 C 
ATOM     38  H   UNL     1     -45.909  34.499  25.856  1.00  0.00     0.076 H 
ATOM     39  H   UNL     1     -45.193  34.185  27.418  1.00  0.00     0.076 H 
BRANCH  37  40
ATOM     40  C   UNL     1     -46.514  35.864  27.424  1.00  0.00     0.010 A 
ATOM     41  C   UNL     1     -47.843  36.236  27.541  1.00  0.00     0.034 A 
ATOM     42  C   UNL     1     -45.542  36.841  27.689  1.00  0.00    -0.028 A 
ATOM     43  N   UNL     1     -48.244  37.471  27.906  1.00  0.00    -0.262 NA
ATOM     44  H   UNL     1     -48.650  35.538  27.328  1.00  0.00     0.084 H 
ATOM     45  C   UNL     1     -45.914  38.150  28.018  1.00  0.00     0.066 A 
ATOM     46  H   UNL     1     -44.502  36.554  27.569  1.00  0.00     0.065 H 
ATOM     47  C   UNL     1     -47.277  38.400  28.127  1.00  0.00     0.051 A 
ATOM     48  H   UNL     1     -47.689  39.363  28.405  1.00  0.00     0.086 H 
BRANCH  45  49
ATOM     49  N   UNL     1     -44.929  39.177  28.186  1.00  0.00    -0.298 N 
ATOM     50  C   UNL     1     -44.007  39.233  29.219  1.00  0.00     0.031 A 
ATOM     51  C   UNL     1     -44.674  40.269  27.352  1.00  0.00     0.151 A 
ATOM     52  C   UNL     1     -43.187  40.319  29.039  1.00  0.00     0.072 A 
ATOM     53  H   UNL     1     -43.986  38.499  30.012  1.00  0.00     0.084 H 
ATOM     54  C   UNL     1     -43.597  40.989  27.868  1.00  0.00     0.080 A 
ATOM     55  N   UNL     1     -45.326  40.578  26.214  1.00  0.00    -0.218 NA
ATOM     56  Cl  UNL     1     -41.887  40.755  30.045  1.00  0.00    -0.082 Cl
ATOM     57  C   UNL     1     -43.185  42.124  27.153  1.00  0.00     0.137 A 
ATOM     58  C   UNL     1     -44.846  41.676  25.615  1.00  0.00     0.120 A 
ATOM     59  N   UNL     1     -43.822  42.447  26.014  1.00  0.00    -0.219 NA
ATOM     60  H   UNL     1     -45.340  41.977  24.697  1.00  0.00     0.106 H 
BRANCH  57  61
ATOM     61  N   UNL     1     -42.143  42.946  27.538  1.00  0.00    -0.383 N 
ATOM     62  H   UNL     1     -41.875  43.607  26.820  1.00  0.00     0.158 HD
ATOM     63  H   UNL     1     -41.415  42.540  28.108  1.00  0.00     0.158 HD
ENDBRANCH  57  61
ENDBRANCH  45  49
ENDBRANCH  37  40
ENDBRANCH  36  37
ENDBRANCH   7  36
TORSDOF 12
ENDMDL
MODEL 3
REMARK VINA RESULT:      -8.9      1.834      3.235
REMARK SMILES Cc1cc(NCCN(C)C)c2ccc(OCc3cncc(-n4cc(Cl)c5c(N)ncnc54)c3)cc2n1
REMARK SMILES IDX 2 1 3 2 4 3 11 4 12 5 13 6 14 7 34 8 35 9 36 10 1 15 5 19
REMARK SMILES IDX 6 21 7 24 8 27 9 28 10 32 15 36 16 37 17 40 18 41 33 42
REMARK SMILES IDX 19 43 21 45 20 47 22 49 23 50 32 51 24 52 26 54 31 55 25 56
REMARK SMILES IDX 27 57 30 58 29 59 28 61
REMARK H PARENT 3 11 12 12 13 13 34 14 1 16 1 17 1 18 5 20 6 22 6 23 7 25 7 26
REMARK H PARENT 9 29 9 30 9 31 10 33 10 34 10 35 16 38 16 39 18 44 33 46 20 48
REMARK H PARENT 23 53 30 60 28 62 28 63
REMARK Flexibility Score: inf
ROOT
ATOM      1  C   UNL     1     -48.855  30.460  24.991  1.00  0.00     0.040 A 
ATOM      2  C   UNL     1     -47.702  30.310  24.238  1.00  0.00    -0.017 A 
ATOM      3  C   UNL     1     -46.760  31.342  24.205  1.00  0.00     0.045 A 
ATOM      4  C   UNL     1     -47.022  32.532  24.935  1.00  0.00     0.024 A 
ATOM      5  C   UNL     1     -46.166  33.662  24.975  1.00  0.00    -0.047 A 
ATOM      6  C   UNL     1     -46.460  34.767  25.770  1.00  0.00    -0.019 A 
ATOM      7  C   UNL     1     -47.607  34.755  26.548  1.00  0.00     0.122 A 
ATOM      8  C   UNL     1     -48.498  33.689  26.464  1.00  0.00     0.007 A 
ATOM      9  C   UNL     1     -48.220  32.575  25.686  1.00  0.00     0.076 A 
ATOM     10  N   UNL     1     -49.107  31.569  25.718  1.00  0.00    -0.253 NA
ATOM     11  H   UNL     1     -47.539  29.404  23.663  1.00  0.00     0.066 H 
ATOM     12  H   UNL     1     -45.242  33.688  24.404  1.00  0.00     0.063 H 
ATOM     13  H   UNL     1     -45.773  35.608  25.813  1.00  0.00     0.066 H 
ATOM     14  H   UNL     1     -49.423  33.705  27.034  1.00  0.00     0.069 H 
ENDROOT
BRANCH   1  15
ATOM     15  C   UNL     1     -49.877  29.364  25.030  1.00  0.00    -0.022 C 
ATOM     16  H   UNL     1     -50.743  29.677  25.621  1.00  0.00     0.030 H 
ATOM     17  H   UNL     1     -49.461  28.461  25.486  1.00  0.00     0.030 H 
ATOM     18  H   UNL     1     -50.203  29.116  24.016  1.00  0.00     0.030 H 
ENDBRANCH   1  15
BRANCH   3  19
ATOM     19  N   UNL     1     -45.568  31.133  23.467  1.00  0.00    -0.383 N 
ATOM     20  H   UNL     1     -44.861  30.645  24.019  1.00  0.00     0.160 HD
BRANCH  19  21
ATOM     21  C   UNL     1     -45.754  30.374  22.216  1.00  0.00     0.027 C 
ATOM     22  H   UNL     1     -44.855  29.819  21.925  1.00  0.00     0.050 H 
ATOM     23  H   UNL     1     -46.529  29.622  22.396  1.00  0.00     0.050 H 
BRANCH  21  24
ATOM     24  C   UNL     1     -46.191  31.304  21.057  1.00  0.00     0.015 C 
ATOM     25  H   UNL     1     -45.323  31.529  20.424  1.00  0.00     0.045 H 
ATOM     26  H   UNL     1     -46.506  32.252  21.511  1.00  0.00     0.045 H 
BRANCH  24  27
ATOM     27  N   UNL     1     -47.315  30.773  20.250  1.00  0.00    -0.308 NA
BRANCH  27  28
ATOM     28  C   UNL     1     -48.296  30.129  21.129  1.00  0.00    -0.014 C 
ATOM     29  H   UNL     1     -48.714  30.826  21.863  1.00  0.00     0.039 H 
ATOM     30  H   UNL     1     -47.837  29.291  21.664  1.00  0.00     0.039 H 
ATOM     31  H   UNL     1     -49.121  29.707  20.543  1.00  0.00     0.039 H 
ENDBRANCH  27  28
BRANCH  27  32
ATOM     32  C   UNL     1     -47.969  31.832  19.476  1.00  0.00    -0.014 C 
ATOM     33  H   UNL     1     -47.525  31.952  18.481  1.00  0.00     0.039 H 
ATOM     34  H   UNL     1     -49.039  31.632  19.357  1.00  0.00     0.039 H 
ATOM     35  H   UNL     1     -47.898  32.791  20.002  1.00  0.00     0.039 H 
ENDBRANCH  27  32
ENDBRANCH  24  27
ENDBRANCH  21  24
ENDBRANCH  19  21
ENDBRANCH   3  19
BRANCH   7  36
ATOM     36  O   UNL     1     -47.802  35.808  27.402  1.00  0.00    -0.489 OA
BRANCH  36  37
ATOM     37  C   UNL     1     -47.405  35.511  28.755  1.00  0.00     0.115 C 
ATOM     38  H   UNL     1     -46.998  34.495  28.841  1.00  0.00     0.076 H 
ATOM     39  H   UNL     1     -48.321  35.510  29.359  1.00  0.00     0.076 H 
BRANCH  37  40
ATOM     40  C   UNL     1     -46.449  36.537  29.309  1.00  0.00     0.010 A 
ATOM     41  C   UNL     1     -46.216  36.635  30.671  1.00  0.00     0.034 A 
ATOM     42  C   UNL     1     -45.837  37.485  28.476  1.00  0.00    -0.028 A 
ATOM     43  N   UNL     1     -45.429  37.579  31.228  1.00  0.00    -0.262 NA
ATOM     44  H   UNL     1     -46.677  35.949  31.379  1.00  0.00     0.084 H 
ATOM     45  C   UNL     1     -45.056  38.514  29.016  1.00  0.00     0.066 A 
ATOM     46  H   UNL     1     -46.043  37.422  27.413  1.00  0.00     0.065 H 
ATOM     47  C   UNL     1     -44.875  38.499  30.395  1.00  0.00     0.051 A 
ATOM     48  H   UNL     1     -44.268  39.222  30.927  1.00  0.00     0.086 H 
BRANCH  45  49
ATOM     49  N   UNL     1     -44.515  39.546  28.183  1.00  0.00    -0.298 N 
ATOM     50  C   UNL     1     -45.025  39.921  26.949  1.00  0.00     0.031 A 
ATOM     51  C   UNL     1     -43.431  40.388  28.449  1.00  0.00     0.151 A 
ATOM     52  C   UNL     1     -44.294  40.973  26.455  1.00  0.00     0.072 A 
ATOM     53  H   UNL     1     -45.873  39.424  26.502  1.00  0.00     0.084 H 
ATOM     54  C   UNL     1     -43.280  41.278  27.387  1.00  0.00     0.080 A 
ATOM     55  N   UNL     1     -42.664  40.381  29.557  1.00  0.00    -0.218 NA
ATOM     56  Cl  UNL     1     -44.589  41.780  24.988  1.00  0.00    -0.082 Cl
ATOM     57  C   UNL     1     -42.239  42.215  27.481  1.00  0.00     0.137 A 
ATOM     58  C   UNL     1     -41.708  41.319  29.539  1.00  0.00     0.120 A 
ATOM     59  N   UNL     1     -41.465  42.225  28.580  1.00  0.00    -0.219 NA
ATOM     60  H   UNL     1     -41.054  41.354  30.405  1.00  0.00     0.106 H 
BRANCH  57  61
ATOM     61  N   UNL     1     -41.954  43.155  26.509  1.00  0.00    -0.383 N 
ATOM     62  H   UNL     1     -42.732  43.772  26.316  1.00  0.00     0.158 HD
ATOM     63  H   UNL     1     -41.371  42.865  25.736  1.00  0.00     0.158 HD
ENDBRANCH  57  61
ENDBRANCH  45  49
ENDBRANCH  37  40
ENDBRANCH  36  37
ENDBRANCH   7  36
TORSDOF 12
ENDMDL
MODEL 4
REMARK VINA RESULT:      -8.7      1.977      2.692
REMARK SMILES Cc1cc(NCCN(C)C)c2ccc(OCc3cncc(-n4cc(Cl)c5c(N)ncnc54)c3)cc2n1
REMARK SMILES IDX 2 1 3 2 4 3 11 4 12 5 13 6 14 7 34 8 35 9 36 10 1 15 5 19
REMARK SMILES IDX 6 21 7 24 8 27 9 28 10 32 15 36 16 37 17 40 18 41 33 42
REMARK SMILES IDX 19 43 21 45 20 47 22 49 23 50 32 51 24 52 26 54 31 55 25 56
REMARK SMILES IDX 27 57 30 58 29 59 28 61
REMARK H PARENT 3 11 12 12 13 13 34 14 1 16 1 17 1 18 5 20 6 22 6 23 7 25 7 26
REMARK H PARENT 9 29 9 30 9 31 10 33 10 34 10 35 16 38 16 39 18 44 33 46 20 48
REMARK H PARENT 23 53 30 60 28 62 28 63
REMARK Flexibility Score: inf
ROOT
ATOM      1  C   UNL     1     -46.163  30.196  22.989  1.00  0.00     0.040 A 
ATOM      2  C   UNL     1     -47.254  29.449  23.400  1.00  0.00    -0.017 A 
ATOM      3  C   UNL     1     -48.135  29.977  24.348  1.00  0.00     0.045 A 
ATOM      4  C   UNL     1     -47.873  31.268  24.882  1.00  0.00     0.024 A 
ATOM      5  C   UNL     1     -48.669  31.915  25.860  1.00  0.00    -0.047 A 
ATOM      6  C   UNL     1     -48.385  33.211  26.285  1.00  0.00    -0.019 A 
ATOM      7  C   UNL     1     -47.310  33.886  25.727  1.00  0.00     0.122 A 
ATOM      8  C   UNL     1     -46.472  33.240  24.822  1.00  0.00     0.007 A 
ATOM      9  C   UNL     1     -46.742  31.953  24.380  1.00  0.00     0.076 A 
ATOM     10  N   UNL     1     -45.915  31.437  23.459  1.00  0.00    -0.253 NA
ATOM     11  H   UNL     1     -47.416  28.452  23.002  1.00  0.00     0.066 H 
ATOM     12  H   UNL     1     -49.539  31.427  26.292  1.00  0.00     0.063 H 
ATOM     13  H   UNL     1     -49.028  33.703  27.010  1.00  0.00     0.066 H 
ATOM     14  H   UNL     1     -45.599  33.752  24.426  1.00  0.00     0.069 H 
ENDROOT
BRANCH   1  15
ATOM     15  C   UNL     1     -45.207  29.638  21.978  1.00  0.00    -0.022 C 
ATOM     16  H   UNL     1     -45.084  30.341  21.148  1.00  0.00     0.030 H 
ATOM     17  H   UNL     1     -45.579  28.693  21.571  1.00  0.00     0.030 H 
ATOM     18  H   UNL     1     -44.234  29.452  22.440  1.00  0.00     0.030 H 
ENDBRANCH   1  15
BRANCH   3  19
ATOM     19  N   UNL     1     -49.270  29.207  24.707  1.00  0.00    -0.383 N 
ATOM     20  H   UNL     1     -50.092  29.467  24.160  1.00  0.00     0.160 HD
BRANCH  19  21
ATOM     21  C   UNL     1     -49.084  27.751  24.563  1.00  0.00     0.027 C 
ATOM     22  H   UNL     1     -50.032  27.202  24.613  1.00  0.00     0.050 H 
ATOM     23  H   UNL     1     -48.679  27.565  23.563  1.00  0.00     0.050 H 
BRANCH  21  24
ATOM     24  C   UNL     1     -48.107  27.203  25.631  1.00  0.00     0.015 C 
ATOM     25  H   UNL     1     -47.697  28.039  26.213  1.00  0.00     0.045 H 
ATOM     26  H   UNL     1     -47.266  26.751  25.092  1.00  0.00     0.045 H 
BRANCH  24  27
ATOM     27  N   UNL     1     -48.700  26.177  26.521  1.00  0.00    -0.308 NA
BRANCH  27  28
ATOM     28  C   UNL     1     -49.911  25.625  25.903  1.00  0.00    -0.014 C 
ATOM     29  H   UNL     1     -50.649  26.402  25.675  1.00  0.00     0.039 H 
ATOM     30  H   UNL     1     -50.374  24.885  26.564  1.00  0.00     0.039 H 
ATOM     31  H   UNL     1     -49.664  25.098  24.974  1.00  0.00     0.039 H 
ENDBRANCH  27  28
BRANCH  27  32
ATOM     32  C   UNL     1     -47.754  25.094  26.801  1.00  0.00    -0.014 C 
ATOM     33  H   UNL     1     -47.043  24.943  25.980  1.00  0.00     0.039 H 
ATOM     34  H   UNL     1     -47.189  25.289  27.718  1.00  0.00     0.039 H 
ATOM     35  H   UNL     1     -48.288  24.152  26.970  1.00  0.00     0.039 H 
ENDBRANCH  27  32
ENDBRANCH  24  27
ENDBRANCH  21  24
ENDBRANCH  19  21
ENDBRANCH   3  19
BRANCH   7  36
ATOM     36  O   UNL     1     -47.133  35.196  26.084  1.00  0.00    -0.489 OA
BRANCH  36  37
ATOM     37  C   UNL     1     -47.184  35.398  27.509  1.00  0.00     0.115 C 
ATOM     38  H   UNL     1     -46.964  34.472  28.055  1.00  0.00     0.076 H 
ATOM     39  H   UNL     1     -48.226  35.641  27.756  1.00  0.00     0.076 H 
BRANCH  37  40
ATOM     40  C   UNL     1     -46.293  36.528  27.960  1.00  0.00     0.010 A 
ATOM     41  C   UNL     1     -45.610  36.465  29.163  1.00  0.00     0.034 A 
ATOM     42  C   UNL     1     -46.202  37.719  27.224  1.00  0.00    -0.028 A 
ATOM     43  N   UNL     1     -44.858  37.474  29.650  1.00  0.00    -0.262 NA
ATOM     44  H   UNL     1     -45.655  35.582  29.797  1.00  0.00     0.084 H 
ATOM     45  C   UNL     1     -45.477  38.811  27.717  1.00  0.00     0.066 A 
ATOM     46  H   UNL     1     -46.760  37.776  26.295  1.00  0.00     0.065 H 
ATOM     47  C   UNL     1     -44.814  38.623  28.926  1.00  0.00     0.051 A 
ATOM     48  H   UNL     1     -44.197  39.380  29.394  1.00  0.00     0.086 H 
BRANCH  45  49
ATOM     49  N   UNL     1     -45.466  40.064  27.023  1.00  0.00    -0.298 N 
ATOM     50  C   UNL     1     -44.383  40.576  26.324  1.00  0.00     0.031 A 
ATOM     51  C   UNL     1     -46.516  40.975  26.873  1.00  0.00     0.151 A 
ATOM     52  C   UNL     1     -44.740  41.767  25.741  1.00  0.00     0.072 A 
ATOM     53  H   UNL     1     -43.433  40.064  26.279  1.00  0.00     0.084 H 
ATOM     54  C   UNL     1     -46.081  42.037  26.083  1.00  0.00     0.080 A 
ATOM     55  N   UNL     1     -47.761  40.852  27.374  1.00  0.00    -0.218 NA
ATOM     56  Cl  UNL     1     -43.738  42.727  24.758  1.00  0.00    -0.082 Cl
ATOM     57  C   UNL     1     -47.011  43.055  25.812  1.00  0.00     0.137 A 
ATOM     58  C   UNL     1     -48.560  41.877  27.050  1.00  0.00     0.120 A 
ATOM     59  N   UNL     1     -48.258  42.948  26.301  1.00  0.00    -0.219 NA
ATOM     60  H   UNL     1     -49.574  41.834  27.434  1.00  0.00     0.106 H 
BRANCH  57  61
ATOM     61  N   UNL     1     -46.732  44.176  25.055  1.00  0.00    -0.383 N 
ATOM     62  H   UNL     1     -47.261  44.989  25.344  1.00  0.00     0.158 HD
ATOM     63  H   UNL     1     -46.564  44.043  24.067  1.00  0.00     0.158 HD
ENDBRANCH  57  61
ENDBRANCH  45  49
ENDBRANCH  37  40
ENDBRANCH  36  37
ENDBRANCH   7  36
TORSDOF 12
ENDMDL
MODEL 5
REMARK VINA RESULT:      -8.7      1.437      2.547
REMARK SMILES Cc1cc(NCCN(C)C)c2ccc(OCc3cncc(-n4cc(Cl)c5c(N)ncnc54)c3)cc2n1
REMARK SMILES IDX 2 1 3 2 4 3 11 4 12 5 13 6 14 7 34 8 35 9 36 10 1 15 5 19
REMARK SMILES IDX 6 21 7 24 8 27 9 28 10 32 15 36 16 37 17 40 18 41 33 42
REMARK SMILES IDX 19 43 21 45 20 47 22 49 23 50 32 51 24 52 26 54 31 55 25 56
REMARK SMILES IDX 27 57 30 58 29 59 28 61
REMARK H PARENT 3 11 12 12 13 13 34 14 1 16 1 17 1 18 5 20 6 22 6 23 7 25 7 26
REMARK H PARENT 9 29 9 30 9 31 10 33 10 34 10 35 16 38 16 39 18 44 33 46 20 48
REMARK H PARENT 23 53 30 60 28 62 28 63
REMARK Flexibility Score: inf
ROOT
ATOM      1  C   UNL     1     -46.461  31.174  21.863  1.00  0.00     0.040 A 
ATOM      2  C   UNL     1     -47.373  30.136  21.951  1.00  0.00    -0.017 A 
ATOM      3  C   UNL     1     -48.087  29.943  23.137  1.00  0.00     0.045 A 
ATOM      4  C   UNL     1     -47.840  30.812  24.234  1.00  0.00     0.024 A 
ATOM      5  C   UNL     1     -48.475  30.721  25.499  1.00  0.00    -0.047 A 
ATOM      6  C   UNL     1     -48.229  31.653  26.503  1.00  0.00    -0.019 A 
ATOM      7  C   UNL     1     -47.355  32.700  26.255  1.00  0.00     0.122 A 
ATOM      8  C   UNL     1     -46.663  32.764  25.049  1.00  0.00     0.007 A 
ATOM      9  C   UNL     1     -46.900  31.851  24.032  1.00  0.00     0.076 A 
ATOM     10  N   UNL     1     -46.235  32.030  22.881  1.00  0.00    -0.253 NA
ATOM     11  H   UNL     1     -47.523  29.466  21.111  1.00  0.00     0.066 H 
ATOM     12  H   UNL     1     -49.191  29.932  25.712  1.00  0.00     0.063 H 
ATOM     13  H   UNL     1     -48.752  31.585  27.453  1.00  0.00     0.066 H 
ATOM     14  H   UNL     1     -45.939  33.555  24.876  1.00  0.00     0.069 H 
ENDROOT
BRANCH   1  15
ATOM     15  C   UNL     1     -45.684  31.387  20.599  1.00  0.00    -0.022 C 
ATOM     16  H   UNL     1     -44.649  31.654  20.833  1.00  0.00     0.030 H 
ATOM     17  H   UNL     1     -46.119  32.199  20.007  1.00  0.00     0.030 H 
ATOM     18  H   UNL     1     -45.694  30.478  19.991  1.00  0.00     0.030 H 
ENDBRANCH   1  15
BRANCH   3  19
ATOM     19  N   UNL     1     -49.051  28.905  23.175  1.00  0.00    -0.383 N 
ATOM     20  H   UNL     1     -49.006  28.377  24.048  1.00  0.00     0.160 HD
BRANCH  19  21
ATOM     21  C   UNL     1     -50.443  29.365  23.009  1.00  0.00     0.027 C 
ATOM     22  H   UNL     1     -51.159  28.735  23.549  1.00  0.00     0.050 H 
ATOM     23  H   UNL     1     -50.519  30.362  23.455  1.00  0.00     0.050 H 
BRANCH  21  24
ATOM     24  C   UNL     1     -50.834  29.433  21.512  1.00  0.00     0.015 C 
ATOM     25  H   UNL     1     -51.407  28.536  21.243  1.00  0.00     0.045 H 
ATOM     26  H   UNL     1     -49.901  29.397  20.936  1.00  0.00     0.045 H 
BRANCH  24  27
ATOM     27  N   UNL     1     -51.569  30.665  21.137  1.00  0.00    -0.308 NA
BRANCH  27  28
ATOM     28  C   UNL     1     -50.849  31.842  21.633  1.00  0.00    -0.014 C 
ATOM     29  H   UNL     1     -50.448  32.455  20.818  1.00  0.00     0.039 H 
ATOM     30  H   UNL     1     -50.022  31.539  22.283  1.00  0.00     0.039 H 
ATOM     31  H   UNL     1     -51.509  32.469  22.245  1.00  0.00     0.039 H 
ENDBRANCH  27  28
BRANCH  27  32
ATOM     32  C   UNL     1     -51.740  30.769  19.686  1.00  0.00    -0.014 C 
ATOM     33  H   UNL     1     -52.791  30.680  19.385  1.00  0.00     0.039 H 
ATOM     34  H   UNL     1     -51.351  31.720  19.308  1.00  0.00     0.039 H 
ATOM     35  H   UNL     1     -51.170  29.985  19.175  1.00  0.00     0.039 H 
ENDBRANCH  27  32
ENDBRANCH  24  27
ENDBRANCH  21  24
ENDBRANCH  19  21
ENDBRANCH   3  19
BRANCH   7  36
ATOM     36  O   UNL     1     -47.227  33.659  27.225  1.00  0.00    -0.489 OA
BRANCH  36  37
ATOM     37  C   UNL     1     -47.192  34.995  26.687  1.00  0.00     0.115 C 
ATOM     38  H   UNL     1     -48.182  35.317  26.341  1.00  0.00     0.076 H 
ATOM     39  H   UNL     1     -46.566  34.957  25.786  1.00  0.00     0.076 H 
BRANCH  37  40
ATOM     40  C   UNL     1     -46.599  35.987  27.657  1.00  0.00     0.010 A 
ATOM     41  C   UNL     1     -46.745  35.826  29.025  1.00  0.00     0.034 A 
ATOM     42  C   UNL     1     -45.963  37.153  27.205  1.00  0.00    -0.028 A 
ATOM     43  N   UNL     1     -46.300  36.718  29.934  1.00  0.00    -0.262 NA
ATOM     44  H   UNL     1     -47.249  34.959  29.445  1.00  0.00     0.084 H 
ATOM     45  C   UNL     1     -45.533  38.131  28.111  1.00  0.00     0.066 A 
ATOM     46  H   UNL     1     -45.874  37.290  26.132  1.00  0.00     0.065 H 
ATOM     47  C   UNL     1     -45.714  37.850  29.461  1.00  0.00     0.051 A 
ATOM     48  H   UNL     1     -45.397  38.511  30.258  1.00  0.00     0.086 H 
BRANCH  45  49
ATOM     49  N   UNL     1     -44.979  39.370  27.653  1.00  0.00    -0.298 N 
ATOM     50  C   UNL     1     -45.411  40.070  26.537  1.00  0.00     0.031 A 
ATOM     51  C   UNL     1     -43.958  40.125  28.238  1.00  0.00     0.151 A 
ATOM     52  C   UNL     1     -44.694  41.236  26.425  1.00  0.00     0.072 A 
ATOM     53  H   UNL     1     -46.200  39.702  25.897  1.00  0.00     0.084 H 
ATOM     54  C   UNL     1     -43.768  41.284  27.487  1.00  0.00     0.080 A 
ATOM     55  N   UNL     1     -43.278  39.819  29.360  1.00  0.00    -0.218 NA
ATOM     56  Cl  UNL     1     -44.914  42.421  25.226  1.00  0.00    -0.082 Cl
ATOM     57  C   UNL     1     -42.782  42.179  27.932  1.00  0.00     0.137 A 
ATOM     58  C   UNL     1     -42.367  40.744  29.690  1.00  0.00     0.120 A 
ATOM     59  N   UNL     1     -42.094  41.892  29.051  1.00  0.00    -0.219 NA
ATOM     60  H   UNL     1     -41.782  40.545  30.582  1.00  0.00     0.106 H 
BRANCH  57  61
ATOM     61  N   UNL     1     -42.467  43.363  27.294  1.00  0.00    -0.383 N 
ATOM     62  H   UNL     1     -43.260  43.782  26.826  1.00  0.00     0.158 HD
ATOM     63  H   UNL     1     -41.562  43.427  26.848  1.00  0.00     0.158 HD
ENDBRANCH  57  61
ENDBRANCH  45  49
ENDBRANCH  37  40
ENDBRANCH  36  37
ENDBRANCH   7  36
TORSDOF 12
ENDMDL
MODEL 6
REMARK VINA RESULT:      -8.5      2.414      3.629
REMARK SMILES Cc1cc(NCCN(C)C)c2ccc(OCc3cncc(-n4cc(Cl)c5c(N)ncnc54)c3)cc2n1
REMARK SMILES IDX 2 1 3 2 4 3 11 4 12 5 13 6 14 7 34 8 35 9 36 10 1 15 5 19
REMARK SMILES IDX 6 21 7 24 8 27 9 28 10 32 15 36 16 37 17 40 18 41 33 42
REMARK SMILES IDX 19 43 21 45 20 47 22 49 23 50 32 51 24 52 26 54 31 55 25 56
REMARK SMILES IDX 27 57 30 58 29 59 28 61
REMARK H PARENT 3 11 12 12 13 13 34 14 1 16 1 17 1 18 5 20 6 22 6 23 7 25 7 26
REMARK H PARENT 9 29 9 30 9 31 10 33 10 34 10 35 16 38 16 39 18 44 33 46 20 48
REMARK H PARENT 23 53 30 60 28 62 28 63
REMARK Flexibility Score: inf
ROOT
ATOM      1  C   UNL     1     -46.721  30.797  23.251  1.00  0.00     0.040 A 
ATOM      2  C   UNL     1     -48.095  30.626  23.291  1.00  0.00    -0.017 A 
ATOM      3  C   UNL     1     -48.864  31.415  24.150  1.00  0.00     0.045 A 
ATOM      4  C   UNL     1     -48.209  32.366  24.978  1.00  0.00     0.024 A 
ATOM      5  C   UNL     1     -48.862  33.216  25.907  1.00  0.00    -0.047 A 
ATOM      6  C   UNL     1     -48.157  34.171  26.635  1.00  0.00    -0.019 A 
ATOM      7  C   UNL     1     -46.791  34.300  26.437  1.00  0.00     0.122 A 
ATOM      8  C   UNL     1     -46.120  33.424  25.588  1.00  0.00     0.007 A 
ATOM      9  C   UNL     1     -46.804  32.473  24.846  1.00  0.00     0.076 A 
ATOM     10  N   UNL     1     -46.083  31.717  24.006  1.00  0.00    -0.253 NA
ATOM     11  H   UNL     1     -48.570  29.872  22.672  1.00  0.00     0.066 H 
ATOM     12  H   UNL     1     -49.936  33.163  26.060  1.00  0.00     0.063 H 
ATOM     13  H   UNL     1     -48.680  34.836  27.316  1.00  0.00     0.066 H 
ATOM     14  H   UNL     1     -45.042  33.493  25.474  1.00  0.00     0.069 H 
ENDROOT
BRANCH   1  15
ATOM     15  C   UNL     1     -45.883  29.952  22.340  1.00  0.00    -0.022 C 
ATOM     16  H   UNL     1     -46.462  29.095  21.983  1.00  0.00     0.030 H 
ATOM     17  H   UNL     1     -45.000  29.573  22.864  1.00  0.00     0.030 H 
ATOM     18  H   UNL     1     -45.545  30.541  21.483  1.00  0.00     0.030 H 
ENDBRANCH   1  15
BRANCH   3  19
ATOM     19  N   UNL     1     -50.272  31.251  24.125  1.00  0.00    -0.383 N 
ATOM     20  H   UNL     1     -50.757  32.144  24.028  1.00  0.00     0.160 HD
BRANCH  19  21
ATOM     21  C   UNL     1     -50.760  30.364  23.052  1.00  0.00     0.027 C 
ATOM     22  H   UNL     1     -50.004  29.635  22.736  1.00  0.00     0.050 H 
ATOM     23  H   UNL     1     -51.593  29.780  23.457  1.00  0.00     0.050 H 
BRANCH  21  24
ATOM     24  C   UNL     1     -51.242  31.180  21.828  1.00  0.00     0.015 C 
ATOM     25  H   UNL     1     -50.384  31.415  21.185  1.00  0.00     0.045 H 
ATOM     26  H   UNL     1     -51.622  32.135  22.211  1.00  0.00     0.045 H 
BRANCH  24  27
ATOM     27  N   UNL     1     -52.321  30.522  21.053  1.00  0.00    -0.308 NA
BRANCH  27  28
ATOM     28  C   UNL     1     -52.425  31.137  19.726  1.00  0.00    -0.014 C 
ATOM     29  H   UNL     1     -53.457  31.403  19.473  1.00  0.00     0.039 H 
ATOM     30  H   UNL     1     -52.040  30.458  18.959  1.00  0.00     0.039 H 
ATOM     31  H   UNL     1     -51.811  32.044  19.672  1.00  0.00     0.039 H 
ENDBRANCH  27  28
BRANCH  27  32
ATOM     32  C   UNL     1     -52.082  29.083  20.910  1.00  0.00    -0.014 C 
ATOM     33  H   UNL     1     -51.429  28.692  21.699  1.00  0.00     0.039 H 
ATOM     34  H   UNL     1     -53.021  28.522  20.927  1.00  0.00     0.039 H 
ATOM     35  H   UNL     1     -51.617  28.866  19.942  1.00  0.00     0.039 H 
ENDBRANCH  27  32
ENDBRANCH  24  27
ENDBRANCH  21  24
ENDBRANCH  19  21
ENDBRANCH   3  19
BRANCH   7  36
ATOM     36  O   UNL     1     -46.153  35.325  27.085  1.00  0.00    -0.489 OA
BRANCH  36  37
ATOM     37  C   UNL     1     -46.933  35.874  28.164  1.00  0.00     0.115 C 
ATOM     38  H   UNL     1     -46.559  35.542  29.141  1.00  0.00     0.076 H 
ATOM     39  H   UNL     1     -47.940  35.445  28.076  1.00  0.00     0.076 H 
BRANCH  37  40
ATOM     40  C   UNL     1     -47.030  37.378  28.093  1.00  0.00     0.010 A 
ATOM     41  C   UNL     1     -48.257  38.012  27.986  1.00  0.00     0.034 A 
ATOM     42  C   UNL     1     -45.879  38.178  28.038  1.00  0.00    -0.028 A 
ATOM     43  N   UNL     1     -48.399  39.346  27.846  1.00  0.00    -0.262 NA
ATOM     44  H   UNL     1     -49.190  37.452  27.996  1.00  0.00     0.084 H 
ATOM     45  C   UNL     1     -45.978  39.561  27.839  1.00  0.00     0.066 A 
ATOM     46  H   UNL     1     -44.919  37.676  28.094  1.00  0.00     0.065 H 
ATOM     47  C   UNL     1     -47.263  40.088  27.767  1.00  0.00     0.051 A 
ATOM     48  H   UNL     1     -47.471  41.145  27.646  1.00  0.00     0.086 H 
BRANCH  45  49
ATOM     49  N   UNL     1     -44.807  40.369  27.676  1.00  0.00    -0.298 N 
ATOM     50  C   UNL     1     -43.682  40.312  28.485  1.00  0.00     0.031 A 
ATOM     51  C   UNL     1     -44.545  41.314  26.679  1.00  0.00     0.151 A 
ATOM     52  C   UNL     1     -42.735  41.185  28.010  1.00  0.00     0.072 A 
ATOM     53  H   UNL     1     -43.622  39.656  29.341  1.00  0.00     0.084 H 
ATOM     54  C   UNL     1     -43.265  41.831  26.874  1.00  0.00     0.080 A 
ATOM     55  N   UNL     1     -45.366  41.662  25.669  1.00  0.00    -0.218 NA
ATOM     56  Cl  UNL     1     -41.185  41.418  28.669  1.00  0.00    -0.082 Cl
ATOM     57  C   UNL     1     -42.819  42.795  25.956  1.00  0.00     0.137 A 
ATOM     58  C   UNL     1     -44.835  42.584  24.855  1.00  0.00     0.120 A 
ATOM     59  N   UNL     1     -43.623  43.153  24.940  1.00  0.00    -0.219 NA
ATOM     60  H   UNL     1     -45.457  42.908  24.027  1.00  0.00     0.106 H 
BRANCH  57  61
ATOM     61  N   UNL     1     -41.582  43.408  26.017  1.00  0.00    -0.383 N 
ATOM     62  H   UNL     1     -41.622  44.398  25.811  1.00  0.00     0.158 HD
ATOM     63  H   UNL     1     -40.784  42.884  25.687  1.00  0.00     0.158 HD
ENDBRANCH  57  61
ENDBRANCH  45  49
ENDBRANCH  37  40
ENDBRANCH  36  37
ENDBRANCH   7  36
TORSDOF 12
ENDMDL
MODEL 7
REMARK VINA RESULT:      -8.4      2.035      2.680
REMARK SMILES Cc1cc(NCCN(C)C)c2ccc(OCc3cncc(-n4cc(Cl)c5c(N)ncnc54)c3)cc2n1
REMARK SMILES IDX 2 1 3 2 4 3 11 4 12 5 13 6 14 7 34 8 35 9 36 10 1 15 5 19
REMARK SMILES IDX 6 21 7 24 8 27 9 28 10 32 15 36 16 37 17 40 18 41 33 42
REMARK SMILES IDX 19 43 21 45 20 47 22 49 23 50 32 51 24 52 26 54 31 55 25 56
REMARK SMILES IDX 27 57 30 58 29 59 28 61
REMARK H PARENT 3 11 12 12 13 13 34 14 1 16 1 17 1 18 5 20 6 22 6 23 7 25 7 26
REMARK H PARENT 9 29 9 30 9 31 10 33 10 34 10 35 16 38 16 39 18 44 33 46 20 48
REMARK H PARENT 23 53 30 60 28 62 28 63
REMARK Flexibility Score: inf
ROOT
ATOM      1  C   UNL     1     -46.447  30.948  23.125  1.00  0.00     0.040 A 
ATOM      2  C   UNL     1     -47.647  30.335  23.446  1.00  0.00    -0.017 A 
ATOM      3  C   UNL     1     -48.484  30.917  24.402  1.00  0.00     0.045 A 
ATOM      4  C   UNL     1     -48.070  32.119  25.036  1.00  0.00     0.024 A 
ATOM      5  C   UNL     1     -48.808  32.805  26.033  1.00  0.00    -0.047 A 
ATOM      6  C   UNL     1     -48.367  34.016  26.559  1.00  0.00    -0.019 A 
ATOM      7  C   UNL     1     -47.187  34.569  26.085  1.00  0.00     0.122 A 
ATOM      8  C   UNL     1     -46.409  33.875  25.163  1.00  0.00     0.007 A 
ATOM      9  C   UNL     1     -46.835  32.671  24.620  1.00  0.00     0.076 A 
ATOM     10  N   UNL     1     -46.050  32.107  23.691  1.00  0.00    -0.253 NA
ATOM     11  H   UNL     1     -47.928  29.401  22.972  1.00  0.00     0.066 H 
ATOM     12  H   UNL     1     -49.754  32.416  26.400  1.00  0.00     0.063 H 
ATOM     13  H   UNL     1     -48.964  34.543  27.298  1.00  0.00     0.066 H 
ATOM     14  H   UNL     1     -45.458  34.284  24.833  1.00  0.00     0.069 H 
ENDROOT
BRANCH   1  15
ATOM     15  C   UNL     1     -45.537  30.331  22.107  1.00  0.00    -0.022 C 
ATOM     16  H   UNL     1     -44.654  29.908  22.597  1.00  0.00     0.030 H 
ATOM     17  H   UNL     1     -45.198  31.080  21.383  1.00  0.00     0.030 H 
ATOM     18  H   UNL     1     -46.059  29.541  21.561  1.00  0.00     0.030 H 
ENDBRANCH   1  15
BRANCH   3  19
ATOM     19  N   UNL     1     -49.729  30.292  24.668  1.00  0.00    -0.383 N 
ATOM     20  H   UNL     1     -50.427  30.521  23.959  1.00  0.00     0.160 HD
BRANCH  19  21
ATOM     21  C   UNL     1     -49.660  28.822  24.763  1.00  0.00     0.027 C 
ATOM     22  H   UNL     1     -48.636  28.443  24.658  1.00  0.00     0.050 H 
ATOM     23  H   UNL     1     -49.986  28.538  25.769  1.00  0.00     0.050 H 
BRANCH  21  24
ATOM     24  C   UNL     1     -50.575  28.150  23.710  1.00  0.00     0.015 C 
ATOM     25  H   UNL     1     -51.459  27.731  24.209  1.00  0.00     0.045 H 
ATOM     26  H   UNL     1     -50.015  27.303  23.295  1.00  0.00     0.045 H 
BRANCH  24  27
ATOM     27  N   UNL     1     -50.968  29.044  22.595  1.00  0.00    -0.308 NA
BRANCH  27  28
ATOM     28  C   UNL     1     -50.408  28.544  21.336  1.00  0.00    -0.014 C 
ATOM     29  H   UNL     1     -49.546  27.888  21.499  1.00  0.00     0.039 H 
ATOM     30  H   UNL     1     -50.098  29.377  20.697  1.00  0.00     0.039 H 
ATOM     31  H   UNL     1     -51.165  27.987  20.771  1.00  0.00     0.039 H 
ENDBRANCH  27  28
BRANCH  27  32
ATOM     32  C   UNL     1     -52.425  29.150  22.478  1.00  0.00    -0.014 C 
ATOM     33  H   UNL     1     -52.921  29.143  23.456  1.00  0.00     0.039 H 
ATOM     34  H   UNL     1     -52.714  30.064  21.949  1.00  0.00     0.039 H 
ATOM     35  H   UNL     1     -52.823  28.319  21.885  1.00  0.00     0.039 H 
ENDBRANCH  27  32
ENDBRANCH  24  27
ENDBRANCH  21  24
ENDBRANCH  19  21
ENDBRANCH   3  19
BRANCH   7  36
ATOM     36  O   UNL     1     -46.845  35.814  26.542  1.00  0.00    -0.489 OA
BRANCH  36  37
ATOM     37  C   UNL     1     -47.745  36.304  27.554  1.00  0.00     0.115 C 
ATOM     38  H   UNL     1     -47.548  35.839  28.528  1.00  0.00     0.076 H 
ATOM     39  H   UNL     1     -48.752  35.970  27.271  1.00  0.00     0.076 H 
BRANCH  37  40
ATOM     40  C   UNL     1     -47.735  37.810  27.651  1.00  0.00     0.010 A 
ATOM     41  C   UNL     1     -48.867  38.510  28.032  1.00  0.00     0.034 A 
ATOM     42  C   UNL     1     -46.609  38.554  27.266  1.00  0.00    -0.028 A 
ATOM     43  N   UNL     1     -48.936  39.857  28.065  1.00  0.00    -0.262 NA
ATOM     44  H   UNL     1     -49.783  37.999  28.319  1.00  0.00     0.084 H 
ATOM     45  C   UNL     1     -46.654  39.953  27.234  1.00  0.00     0.066 A 
ATOM     46  H   UNL     1     -45.733  38.002  26.942  1.00  0.00     0.065 H 
ATOM     47  C   UNL     1     -47.838  40.548  27.659  1.00  0.00     0.051 A 
ATOM     48  H   UNL     1     -47.985  41.620  27.710  1.00  0.00     0.086 H 
BRANCH  45  49
ATOM     49  N   UNL     1     -45.546  40.717  26.743  1.00  0.00    -0.298 N 
ATOM     50  C   UNL     1     -45.540  41.440  25.560  1.00  0.00     0.031 A 
ATOM     51  C   UNL     1     -44.304  40.920  27.351  1.00  0.00     0.151 A 
ATOM     52  C   UNL     1     -44.338  42.090  25.429  1.00  0.00     0.072 A 
ATOM     53  H   UNL     1     -46.387  41.453  24.890  1.00  0.00     0.084 H 
ATOM     54  C   UNL     1     -43.542  41.768  26.549  1.00  0.00     0.080 A 
ATOM     55  N   UNL     1     -43.899  40.417  28.534  1.00  0.00    -0.218 NA
ATOM     56  Cl  UNL     1     -43.905  43.123  24.150  1.00  0.00    -0.082 Cl
ATOM     57  C   UNL     1     -42.257  42.098  27.007  1.00  0.00     0.137 A 
ATOM     58  C   UNL     1     -42.661  40.801  28.871  1.00  0.00     0.120 A 
ATOM     59  N   UNL     1     -41.837  41.607  28.186  1.00  0.00    -0.219 NA
ATOM     60  H   UNL     1     -42.279  40.418  29.812  1.00  0.00     0.106 H 
BRANCH  57  61
ATOM     61  N   UNL     1     -41.378  42.916  26.323  1.00  0.00    -0.383 N 
ATOM     62  H   UNL     1     -41.455  42.826  25.318  1.00  0.00     0.158 HD
ATOM     63  H   UNL     1     -40.458  43.048  26.721  1.00  0.00     0.158 HD
ENDBRANCH  57  61
ENDBRANCH  45  49
ENDBRANCH  37  40
ENDBRANCH  36  37
ENDBRANCH   7  36
TORSDOF 12
ENDMDL
