MODEL 1
REMARK VINA RESULT:     -11.1      0.000      0.000
REMARK SMILES Nc1ncnc2c1ccn2[C@@H]1O[C@H](COc2ccc3ccc(NC4CCC4)nc3c2)[C@@H](O)[C@@H]1F
REMARK SMILES IDX 14 1 13 4 11 5 12 6 33 7 31 9 34 10 10 14 2 15 3 16 7 17
REMARK SMILES IDX 4 18 6 19 8 20 5 21 9 23 1 26 32 29 15 31 16 32 17 33 30 34
REMARK SMILES IDX 18 35 29 37 19 39 28 41 20 42 22 43 21 44 23 47 24 49 25 50
REMARK SMILES IDX 27 51 26 53
REMARK H PARENT 14 2 14 3 11 8 33 11 13 12 31 13 4 22 8 24 9 25 1 27 1 28
REMARK H PARENT 32 30 17 36 30 38 18 40 20 45 21 46 23 48 24 52 25 54 25 55
REMARK H PARENT 27 56 27 57 26 58 26 59
REMARK Flexibility Score: inf
ROOT
ATOM      1  C   UNL     1     -47.164  36.056  27.120  1.00  0.00     0.117 C 
ATOM      2  H   UNL     1     -47.720  36.996  27.196  1.00  0.00     0.073 H 
ATOM      3  H   UNL     1     -46.608  36.050  26.173  1.00  0.00     0.073 H 
ENDROOT
BRANCH   1   4
ATOM      4  C   UNL     1     -46.170  35.931  28.279  1.00  0.00     0.123 C 
ATOM      5  C   UNL     1     -44.999  37.839  28.919  1.00  0.00     0.169 C 
ATOM      6  O   UNL     1     -44.999  36.726  28.001  1.00  0.00    -0.345 OA
ATOM      7  C   UNL     1     -46.351  37.887  29.620  1.00  0.00     0.173 C 
ATOM      8  H   UNL     1     -44.218  37.603  29.655  1.00  0.00     0.088 H 
ATOM      9  C   UNL     1     -46.747  36.428  29.610  1.00  0.00     0.119 C 
ATOM     10  F   UNL     1     -47.273  38.597  28.921  1.00  0.00    -0.239 F 
ATOM     11  H   UNL     1     -46.276  38.326  30.620  1.00  0.00     0.074 H 
ATOM     12  H   UNL     1     -45.847  34.887  28.369  1.00  0.00     0.067 H 
ATOM     13  H   UNL     1     -47.827  36.281  29.700  1.00  0.00     0.066 H 
BRANCH   5  14
ATOM     14  N   UNL     1     -44.595  39.064  28.251  1.00  0.00    -0.303 N 
ATOM     15  C   UNL     1     -42.675  42.028  27.994  1.00  0.00     0.136 A 
ATOM     16  N   UNL     1     -41.940  41.992  29.121  1.00  0.00    -0.219 NA
ATOM     17  C   UNL     1     -43.582  40.989  27.737  1.00  0.00     0.061 A 
ATOM     18  C   UNL     1     -42.120  40.954  29.960  1.00  0.00     0.120 A 
ATOM     19  C   UNL     1     -43.663  39.977  28.686  1.00  0.00     0.147 A 
ATOM     20  C   UNL     1     -44.502  40.669  26.703  1.00  0.00    -0.031 A 
ATOM     21  N   UNL     1     -42.950  39.908  29.823  1.00  0.00    -0.218 NA
ATOM     22  H   UNL     1     -41.514  40.965  30.860  1.00  0.00     0.106 H 
ATOM     23  C   UNL     1     -45.110  39.480  27.039  1.00  0.00     0.009 A 
ATOM     24  H   UNL     1     -44.702  41.250  25.812  1.00  0.00     0.065 H 
ATOM     25  H   UNL     1     -45.867  38.903  26.524  1.00  0.00     0.082 H 
BRANCH  15  26
ATOM     26  N   UNL     1     -42.467  43.099  27.134  1.00  0.00    -0.383 N 
ATOM     27  H   UNL     1     -41.528  43.461  27.247  1.00  0.00     0.158 HD
ATOM     28  H   UNL     1     -42.777  42.942  26.186  1.00  0.00     0.158 HD
ENDBRANCH  15  26
ENDBRANCH   5  14
BRANCH   9  29
ATOM     29  O   UNL     1     -46.116  35.771  30.718  1.00  0.00    -0.387 OA
ATOM     30  H   UNL     1     -45.851  36.464  31.350  1.00  0.00     0.211 HD
ENDBRANCH   9  29
ENDBRANCH   1   4
BRANCH   1  31
ATOM     31  O   UNL     1     -48.067  34.948  27.171  1.00  0.00    -0.491 OA
BRANCH  31  32
ATOM     32  C   UNL     1     -47.778  33.882  26.363  1.00  0.00     0.121 A 
ATOM     33  C   UNL     1     -46.763  34.111  25.437  1.00  0.00    -0.019 A 
ATOM     34  C   UNL     1     -48.402  32.632  26.398  1.00  0.00     0.007 A 
ATOM     35  C   UNL     1     -46.375  33.102  24.558  1.00  0.00    -0.049 A 
ATOM     36  H   UNL     1     -46.271  35.079  25.397  1.00  0.00     0.066 H 
ATOM     37  C   UNL     1     -48.035  31.606  25.535  1.00  0.00     0.076 A 
ATOM     38  H   UNL     1     -49.198  32.417  27.105  1.00  0.00     0.069 H 
ATOM     39  C   UNL     1     -47.007  31.849  24.604  1.00  0.00     0.001 A 
ATOM     40  H   UNL     1     -45.582  33.296  23.841  1.00  0.00     0.063 H 
ATOM     41  N   UNL     1     -48.668  30.422  25.616  1.00  0.00    -0.231 NA
ATOM     42  C   UNL     1     -46.651  30.810  23.742  1.00  0.00    -0.049 A 
ATOM     43  C   UNL     1     -48.305  29.428  24.781  1.00  0.00     0.126 A 
ATOM     44  C   UNL     1     -47.309  29.588  23.829  1.00  0.00    -0.019 A 
ATOM     45  H   UNL     1     -45.869  30.943  22.999  1.00  0.00     0.063 H 
ATOM     46  H   UNL     1     -47.045  28.783  23.154  1.00  0.00     0.066 H 
BRANCH  43  47
ATOM     47  N   UNL     1     -49.018  28.232  24.923  1.00  0.00    -0.367 N 
ATOM     48  H   UNL     1     -49.747  28.245  24.213  1.00  0.00     0.162 HD
BRANCH  47  49
ATOM     49  C   UNL     1     -49.354  27.595  26.159  1.00  0.00     0.028 C 
ATOM     50  C   UNL     1     -50.273  26.365  25.983  1.00  0.00    -0.033 C 
ATOM     51  C   UNL     1     -48.249  26.622  26.633  1.00  0.00    -0.033 C 
ATOM     52  H   UNL     1     -49.667  28.311  26.925  1.00  0.00     0.053 H 
ATOM     53  C   UNL     1     -49.009  25.484  25.923  1.00  0.00    -0.049 C 
ATOM     54  H   UNL     1     -50.905  26.338  25.090  1.00  0.00     0.029 H 
ATOM     55  H   UNL     1     -50.901  26.168  26.858  1.00  0.00     0.029 H 
ATOM     56  H   UNL     1     -48.212  26.508  27.723  1.00  0.00     0.029 H 
ATOM     57  H   UNL     1     -47.234  26.810  26.270  1.00  0.00     0.029 H 
ATOM     58  H   UNL     1     -48.657  25.287  24.904  1.00  0.00     0.027 H 
ATOM     59  H   UNL     1     -49.064  24.539  26.469  1.00  0.00     0.027 H 
ENDBRANCH  47  49
ENDBRANCH  43  47
ENDBRANCH  31  32
ENDBRANCH   1  31
TORSDOF 8
ENDMDL
MODEL 2
REMARK VINA RESULT:     -10.0      2.916     10.990
REMARK SMILES Nc1ncnc2c1ccn2[C@@H]1O[C@H](COc2ccc3ccc(NC4CCC4)nc3c2)[C@@H](O)[C@@H]1F
REMARK SMILES IDX 14 1 13 4 11 5 12 6 33 7 31 9 34 10 10 14 2 15 3 16 7 17
REMARK SMILES IDX 4 18 6 19 8 20 5 21 9 23 1 26 32 29 15 31 16 32 17 33 30 34
REMARK SMILES IDX 18 35 29 37 19 39 28 41 20 42 22 43 21 44 23 47 24 49 25 50
REMARK SMILES IDX 27 51 26 53
REMARK H PARENT 14 2 14 3 11 8 33 11 13 12 31 13 4 22 8 24 9 25 1 27 1 28
REMARK H PARENT 32 30 17 36 30 38 18 40 20 45 21 46 23 48 24 52 25 54 25 55
REMARK H PARENT 27 56 27 57 26 58 26 59
REMARK Flexibility Score: inf
ROOT
ATOM      1  C   UNL     1     -47.977  35.589  26.548  1.00  0.00     0.117 C 
ATOM      2  H   UNL     1     -47.177  35.863  25.852  1.00  0.00     0.073 H 
ATOM      3  H   UNL     1     -48.897  35.414  25.976  1.00  0.00     0.073 H 
ENDROOT
BRANCH   1   4
ATOM      4  C   UNL     1     -47.608  34.308  27.302  1.00  0.00     0.123 C 
ATOM      5  C   UNL     1     -47.481  32.327  26.085  1.00  0.00     0.169 C 
ATOM      6  O   UNL     1     -48.384  33.205  26.790  1.00  0.00    -0.345 OA
ATOM      7  C   UNL     1     -46.142  33.037  25.926  1.00  0.00     0.173 C 
ATOM      8  H   UNL     1     -47.353  31.458  26.744  1.00  0.00     0.088 H 
ATOM      9  C   UNL     1     -46.130  33.932  27.145  1.00  0.00     0.119 C 
ATOM     10  F   UNL     1     -46.094  33.812  24.813  1.00  0.00    -0.239 F 
ATOM     11  H   UNL     1     -45.309  32.329  25.879  1.00  0.00     0.074 H 
ATOM     12  H   UNL     1     -47.862  34.426  28.362  1.00  0.00     0.067 H 
ATOM     13  H   UNL     1     -45.470  34.796  27.030  1.00  0.00     0.066 H 
BRANCH   5  14
ATOM     14  N   UNL     1     -48.082  31.841  24.855  1.00  0.00    -0.303 N 
ATOM     15  C   UNL     1     -47.941  30.276  21.681  1.00  0.00     0.136 A 
ATOM     16  N   UNL     1     -46.632  29.993  21.560  1.00  0.00    -0.219 NA
ATOM     17  C   UNL     1     -48.396  30.918  22.843  1.00  0.00     0.061 A 
ATOM     18  C   UNL     1     -45.811  30.352  22.566  1.00  0.00     0.120 A 
ATOM     19  C   UNL     1     -47.442  31.227  23.805  1.00  0.00     0.147 A 
ATOM     20  C   UNL     1     -49.649  31.369  23.337  1.00  0.00    -0.031 A 
ATOM     21  N   UNL     1     -46.126  30.964  23.718  1.00  0.00    -0.218 NA
ATOM     22  H   UNL     1     -44.762  30.111  22.427  1.00  0.00     0.106 H 
ATOM     23  C   UNL     1     -49.432  31.930  24.576  1.00  0.00     0.009 A 
ATOM     24  H   UNL     1     -50.605  31.298  22.836  1.00  0.00     0.065 H 
ATOM     25  H   UNL     1     -50.120  32.389  25.275  1.00  0.00     0.082 H 
BRANCH  15  26
ATOM     26  N   UNL     1     -48.775  29.888  20.640  1.00  0.00    -0.383 N 
ATOM     27  H   UNL     1     -49.602  30.472  20.618  1.00  0.00     0.158 HD
ATOM     28  H   UNL     1     -48.304  29.743  19.757  1.00  0.00     0.158 HD
ENDBRANCH  15  26
ENDBRANCH   5  14
BRANCH   9  29
ATOM     29  O   UNL     1     -45.674  33.171  28.271  1.00  0.00    -0.387 OA
ATOM     30  H   UNL     1     -45.349  33.807  28.936  1.00  0.00     0.211 HD
ENDBRANCH   9  29
ENDBRANCH   1   4
BRANCH   1  31
ATOM     31  O   UNL     1     -48.176  36.639  27.499  1.00  0.00    -0.491 OA
BRANCH  31  32
ATOM     32  C   UNL     1     -47.138  37.513  27.674  1.00  0.00     0.121 A 
ATOM     33  C   UNL     1     -46.409  37.325  28.846  1.00  0.00    -0.019 A 
ATOM     34  C   UNL     1     -46.773  38.540  26.799  1.00  0.00     0.007 A 
ATOM     35  C   UNL     1     -45.325  38.152  29.138  1.00  0.00    -0.049 A 
ATOM     36  H   UNL     1     -46.684  36.532  29.536  1.00  0.00     0.066 H 
ATOM     37  C   UNL     1     -45.697  39.379  27.063  1.00  0.00     0.076 A 
ATOM     38  H   UNL     1     -47.319  38.719  25.877  1.00  0.00     0.069 H 
ATOM     39  C   UNL     1     -44.966  39.178  28.250  1.00  0.00     0.001 A 
ATOM     40  H   UNL     1     -44.767  37.992  30.056  1.00  0.00     0.063 H 
ATOM     41  N   UNL     1     -45.389  40.349  26.183  1.00  0.00    -0.231 NA
ATOM     42  C   UNL     1     -43.889  40.030  28.503  1.00  0.00    -0.049 A 
ATOM     43  C   UNL     1     -44.341  41.156  26.441  1.00  0.00     0.126 A 
ATOM     44  C   UNL     1     -43.575  41.031  27.591  1.00  0.00    -0.019 A 
ATOM     45  H   UNL     1     -43.294  39.926  29.406  1.00  0.00     0.063 H 
ATOM     46  H   UNL     1     -42.749  41.703  27.789  1.00  0.00     0.066 H 
BRANCH  43  47
ATOM     47  N   UNL     1     -44.093  42.145  25.482  1.00  0.00    -0.367 N 
ATOM     48  H   UNL     1     -43.912  41.658  24.606  1.00  0.00     0.162 HD
BRANCH  47  49
ATOM     49  C   UNL     1     -43.362  43.356  25.692  1.00  0.00     0.028 C 
ATOM     50  C   UNL     1     -41.856  43.225  25.369  1.00  0.00    -0.033 C 
ATOM     51  C   UNL     1     -43.471  44.320  24.488  1.00  0.00    -0.033 C 
ATOM     52  H   UNL     1     -43.598  43.824  26.652  1.00  0.00     0.053 H 
ATOM     53  C   UNL     1     -42.165  43.712  23.939  1.00  0.00    -0.049 C 
ATOM     54  H   UNL     1     -41.415  42.226  25.438  1.00  0.00     0.029 H 
ATOM     55  H   UNL     1     -41.230  43.919  25.941  1.00  0.00     0.029 H 
ATOM     56  H   UNL     1     -43.375  45.375  24.769  1.00  0.00     0.029 H 
ATOM     57  H   UNL     1     -44.348  44.212  23.844  1.00  0.00     0.029 H 
ATOM     58  H   UNL     1     -42.324  42.900  23.221  1.00  0.00     0.027 H 
ATOM     59  H   UNL     1     -41.451  44.424  23.517  1.00  0.00     0.027 H 
ENDBRANCH  47  49
ENDBRANCH  43  47
ENDBRANCH  31  32
ENDBRANCH   1  31
TORSDOF 8
ENDMDL
MODEL 3
REMARK VINA RESULT:      -9.6      3.268     11.276
REMARK SMILES Nc1ncnc2c1ccn2[C@@H]1O[C@H](COc2ccc3ccc(NC4CCC4)nc3c2)[C@@H](O)[C@@H]1F
REMARK SMILES IDX 14 1 13 4 11 5 12 6 33 7 31 9 34 10 10 14 2 15 3 16 7 17
REMARK SMILES IDX 4 18 6 19 8 20 5 21 9 23 1 26 32 29 15 31 16 32 17 33 30 34
REMARK SMILES IDX 18 35 29 37 19 39 28 41 20 42 22 43 21 44 23 47 24 49 25 50
REMARK SMILES IDX 27 51 26 53
REMARK H PARENT 14 2 14 3 11 8 33 11 13 12 31 13 4 22 8 24 9 25 1 27 1 28
REMARK H PARENT 32 30 17 36 30 38 18 40 20 45 21 46 23 48 24 52 25 54 25 55
REMARK H PARENT 27 56 27 57 26 58 26 59
REMARK Flexibility Score: inf
ROOT
ATOM      1  C   UNL     1     -48.233  31.662  24.118  1.00  0.00     0.117 C 
ATOM      2  H   UNL     1     -48.833  32.532  23.832  1.00  0.00     0.073 H 
ATOM      3  H   UNL     1     -48.892  30.787  24.188  1.00  0.00     0.073 H 
ENDROOT
BRANCH   1   4
ATOM      4  C   UNL     1     -47.156  31.390  23.064  1.00  0.00     0.123 C 
ATOM      5  C   UNL     1     -46.436  29.193  22.785  1.00  0.00     0.169 C 
ATOM      6  O   UNL     1     -46.235  30.395  23.558  1.00  0.00    -0.345 OA
ATOM      7  C   UNL     1     -47.704  29.358  21.956  1.00  0.00     0.173 C 
ATOM      8  H   UNL     1     -45.569  29.136  22.113  1.00  0.00     0.088 H 
ATOM      9  C   UNL     1     -47.736  30.855  21.749  1.00  0.00     0.119 C 
ATOM     10  F   UNL     1     -48.819  28.985  22.633  1.00  0.00    -0.239 F 
ATOM     11  H   UNL     1     -47.664  28.776  21.030  1.00  0.00     0.074 H 
ATOM     12  H   UNL     1     -46.585  32.308  22.884  1.00  0.00     0.067 H 
ATOM     13  H   UNL     1     -48.738  31.231  21.528  1.00  0.00     0.066 H 
BRANCH   5  14
ATOM     14  N   UNL     1     -46.391  28.015  23.634  1.00  0.00    -0.303 N 
ATOM     15  C   UNL     1     -47.569  26.007  26.303  1.00  0.00     0.136 A 
ATOM     16  N   UNL     1     -48.599  26.734  26.774  1.00  0.00    -0.219 NA
ATOM     17  C   UNL     1     -46.834  26.494  25.211  1.00  0.00     0.061 A 
ATOM     18  C   UNL     1     -48.870  27.910  26.176  1.00  0.00     0.120 A 
ATOM     19  C   UNL     1     -47.225  27.720  24.686  1.00  0.00     0.147 A 
ATOM     20  C   UNL     1     -45.724  26.046  24.447  1.00  0.00    -0.031 A 
ATOM     21  N   UNL     1     -48.244  28.476  25.133  1.00  0.00    -0.218 NA
ATOM     22  H   UNL     1     -49.704  28.468  26.590  1.00  0.00     0.106 H 
ATOM     23  C   UNL     1     -45.472  26.996  23.481  1.00  0.00     0.009 A 
ATOM     24  H   UNL     1     -45.165  25.131  24.592  1.00  0.00     0.065 H 
ATOM     25  H   UNL     1     -44.715  27.035  22.708  1.00  0.00     0.082 H 
BRANCH  15  26
ATOM     26  N   UNL     1     -47.312  24.792  26.924  1.00  0.00    -0.383 N 
ATOM     27  H   UNL     1     -47.687  24.793  27.864  1.00  0.00     0.158 HD
ATOM     28  H   UNL     1     -47.519  23.980  26.359  1.00  0.00     0.158 HD
ENDBRANCH  15  26
ENDBRANCH   5  14
BRANCH   9  29
ATOM     29  O   UNL     1     -46.884  31.185  20.643  1.00  0.00    -0.387 OA
ATOM     30  H   UNL     1     -46.783  32.155  20.637  1.00  0.00     0.211 HD
ENDBRANCH   9  29
ENDBRANCH   1   4
BRANCH   1  31
ATOM     31  O   UNL     1     -47.593  31.901  25.375  1.00  0.00    -0.491 OA
BRANCH  31  32
ATOM     32  C   UNL     1     -47.778  33.138  25.931  1.00  0.00     0.121 A 
ATOM     33  C   UNL     1     -49.102  33.453  26.227  1.00  0.00    -0.019 A 
ATOM     34  C   UNL     1     -46.775  34.070  26.213  1.00  0.00     0.007 A 
ATOM     35  C   UNL     1     -49.420  34.683  26.799  1.00  0.00    -0.049 A 
ATOM     36  H   UNL     1     -49.892  32.738  26.011  1.00  0.00     0.066 H 
ATOM     37  C   UNL     1     -47.062  35.304  26.784  1.00  0.00     0.076 A 
ATOM     38  H   UNL     1     -45.732  33.862  25.995  1.00  0.00     0.069 H 
ATOM     39  C   UNL     1     -48.405  35.610  27.080  1.00  0.00     0.001 A 
ATOM     40  H   UNL     1     -50.458  34.913  27.023  1.00  0.00     0.063 H 
ATOM     41  N   UNL     1     -46.055  36.161  27.036  1.00  0.00    -0.231 NA
ATOM     42  C   UNL     1     -48.677  36.855  27.651  1.00  0.00    -0.049 A 
ATOM     43  C   UNL     1     -46.338  37.354  27.596  1.00  0.00     0.126 A 
ATOM     44  C   UNL     1     -47.634  37.737  27.909  1.00  0.00    -0.019 A 
ATOM     45  H   UNL     1     -49.695  37.147  27.894  1.00  0.00     0.063 H 
ATOM     46  H   UNL     1     -47.842  38.709  28.340  1.00  0.00     0.066 H 
BRANCH  43  47
ATOM     47  N   UNL     1     -45.238  38.190  27.816  1.00  0.00    -0.367 N 
ATOM     48  H   UNL     1     -44.629  37.701  28.468  1.00  0.00     0.162 HD
BRANCH  47  49
ATOM     49  C   UNL     1     -45.275  39.615  27.938  1.00  0.00     0.028 C 
ATOM     50  C   UNL     1     -43.883  40.246  28.166  1.00  0.00    -0.033 C 
ATOM     51  C   UNL     1     -45.299  40.319  26.562  1.00  0.00    -0.033 C 
ATOM     52  H   UNL     1     -46.062  39.954  28.619  1.00  0.00     0.053 H 
ATOM     53  C   UNL     1     -43.763  40.425  26.640  1.00  0.00    -0.049 C 
ATOM     54  H   UNL     1     -43.117  39.614  28.624  1.00  0.00     0.029 H 
ATOM     55  H   UNL     1     -43.923  41.194  28.715  1.00  0.00     0.029 H 
ATOM     56  H   UNL     1     -45.805  41.292  26.583  1.00  0.00     0.029 H 
ATOM     57  H   UNL     1     -45.690  39.744  25.718  1.00  0.00     0.029 H 
ATOM     58  H   UNL     1     -43.238  39.604  26.139  1.00  0.00     0.027 H 
ATOM     59  H   UNL     1     -43.337  41.375  26.306  1.00  0.00     0.027 H 
ENDBRANCH  47  49
ENDBRANCH  43  47
ENDBRANCH  31  32
ENDBRANCH   1  31
TORSDOF 8
ENDMDL
MODEL 4
REMARK VINA RESULT:      -9.5      2.215      3.180
REMARK SMILES Nc1ncnc2c1ccn2[C@@H]1O[C@H](COc2ccc3ccc(NC4CCC4)nc3c2)[C@@H](O)[C@@H]1F
REMARK SMILES IDX 14 1 13 4 11 5 12 6 33 7 31 9 34 10 10 14 2 15 3 16 7 17
REMARK SMILES IDX 4 18 6 19 8 20 5 21 9 23 1 26 32 29 15 31 16 32 17 33 30 34
REMARK SMILES IDX 18 35 29 37 19 39 28 41 20 42 22 43 21 44 23 47 24 49 25 50
REMARK SMILES IDX 27 51 26 53
REMARK H PARENT 14 2 14 3 11 8 33 11 13 12 31 13 4 22 8 24 9 25 1 27 1 28
REMARK H PARENT 32 30 17 36 30 38 18 40 20 45 21 46 23 48 24 52 25 54 25 55
REMARK H PARENT 27 56 27 57 26 58 26 59
REMARK Flexibility Score: inf
ROOT
ATOM      1  C   UNL     1     -46.004  36.584  27.904  1.00  0.00     0.117 C 
ATOM      2  H   UNL     1     -44.927  36.743  27.788  1.00  0.00     0.073 H 
ATOM      3  H   UNL     1     -46.165  35.672  28.493  1.00  0.00     0.073 H 
ENDROOT
BRANCH   1   4
ATOM      4  C   UNL     1     -46.639  37.768  28.638  1.00  0.00     0.123 C 
ATOM      5  C   UNL     1     -46.017  39.915  27.985  1.00  0.00     0.169 C 
ATOM      6  O   UNL     1     -45.653  38.804  28.831  1.00  0.00    -0.345 OA
ATOM      7  C   UNL     1     -47.119  39.460  27.036  1.00  0.00     0.173 C 
ATOM      8  H   UNL     1     -46.420  40.675  28.669  1.00  0.00     0.088 H 
ATOM      9  C   UNL     1     -47.804  38.393  27.860  1.00  0.00     0.119 C 
ATOM     10  F   UNL     1     -46.628  38.893  25.905  1.00  0.00    -0.239 F 
ATOM     11  H   UNL     1     -47.770  40.288  26.741  1.00  0.00     0.074 H 
ATOM     12  H   UNL     1     -46.974  37.442  29.631  1.00  0.00     0.067 H 
ATOM     13  H   UNL     1     -48.356  37.674  27.249  1.00  0.00     0.066 H 
BRANCH   5  14
ATOM     14  N   UNL     1     -44.844  40.493  27.353  1.00  0.00    -0.303 N 
ATOM     15  C   UNL     1     -41.475  41.586  27.361  1.00  0.00     0.136 A 
ATOM     16  N   UNL     1     -41.097  41.335  28.628  1.00  0.00    -0.219 NA
ATOM     17  C   UNL     1     -42.786  41.276  26.967  1.00  0.00     0.061 A 
ATOM     18  C   UNL     1     -42.006  40.802  29.466  1.00  0.00     0.120 A 
ATOM     19  C   UNL     1     -43.619  40.725  27.933  1.00  0.00     0.147 A 
ATOM     20  C   UNL     1     -43.544  41.380  25.770  1.00  0.00    -0.031 A 
ATOM     21  N   UNL     1     -43.279  40.464  29.207  1.00  0.00    -0.218 NA
ATOM     22  H   UNL     1     -41.663  40.620  30.480  1.00  0.00     0.106 H 
ATOM     23  C   UNL     1     -44.804  40.889  26.031  1.00  0.00     0.009 A 
ATOM     24  H   UNL     1     -43.206  41.778  24.823  1.00  0.00     0.065 H 
ATOM     25  H   UNL     1     -45.673  40.798  25.392  1.00  0.00     0.082 H 
BRANCH  15  26
ATOM     26  N   UNL     1     -40.522  42.125  26.508  1.00  0.00    -0.383 N 
ATOM     27  H   UNL     1     -39.611  41.728  26.706  1.00  0.00     0.158 HD
ATOM     28  H   UNL     1     -40.797  42.154  25.536  1.00  0.00     0.158 HD
ENDBRANCH  15  26
ENDBRANCH   5  14
BRANCH   9  29
ATOM     29  O   UNL     1     -48.733  39.024  28.751  1.00  0.00    -0.387 OA
ATOM     30  H   UNL     1     -48.317  39.848  29.065  1.00  0.00     0.211 HD
ENDBRANCH   9  29
ENDBRANCH   1   4
BRANCH   1  31
ATOM     31  O   UNL     1     -46.619  36.459  26.619  1.00  0.00    -0.491 OA
BRANCH  31  32
ATOM     32  C   UNL     1     -47.175  35.245  26.320  1.00  0.00     0.121 A 
ATOM     33  C   UNL     1     -48.491  35.084  26.748  1.00  0.00    -0.019 A 
ATOM     34  C   UNL     1     -46.543  34.197  25.644  1.00  0.00     0.007 A 
ATOM     35  C   UNL     1     -49.168  33.891  26.502  1.00  0.00    -0.049 A 
ATOM     36  H   UNL     1     -48.993  35.890  27.277  1.00  0.00     0.066 H 
ATOM     37  C   UNL     1     -47.194  32.997  25.383  1.00  0.00     0.076 A 
ATOM     38  H   UNL     1     -45.518  34.284  25.296  1.00  0.00     0.069 H 
ATOM     39  C   UNL     1     -48.525  32.847  25.820  1.00  0.00     0.001 A 
ATOM     40  H   UNL     1     -50.194  33.781  26.843  1.00  0.00     0.063 H 
ATOM     41  N   UNL     1     -46.537  32.024  24.725  1.00  0.00    -0.231 NA
ATOM     42  C   UNL     1     -49.164  31.635  25.552  1.00  0.00    -0.049 A 
ATOM     43  C   UNL     1     -47.174  30.863  24.469  1.00  0.00     0.126 A 
ATOM     44  C   UNL     1     -48.481  30.632  24.873  1.00  0.00    -0.019 A 
ATOM     45  H   UNL     1     -50.188  31.460  25.872  1.00  0.00     0.063 H 
ATOM     46  H   UNL     1     -48.969  29.685  24.675  1.00  0.00     0.066 H 
BRANCH  43  47
ATOM     47  N   UNL     1     -46.420  29.900  23.791  1.00  0.00    -0.367 N 
ATOM     48  H   UNL     1     -45.474  29.959  24.164  1.00  0.00     0.162 HD
BRANCH  47  49
ATOM     49  C   UNL     1     -46.530  29.570  22.403  1.00  0.00     0.028 C 
ATOM     50  C   UNL     1     -47.309  30.624  21.584  1.00  0.00    -0.033 C 
ATOM     51  C   UNL     1     -45.270  29.974  21.605  1.00  0.00    -0.033 C 
ATOM     52  H   UNL     1     -46.836  28.531  22.246  1.00  0.00     0.053 H 
ATOM     53  C   UNL     1     -45.964  31.308  21.268  1.00  0.00    -0.049 C 
ATOM     54  H   UNL     1     -48.033  31.241  22.124  1.00  0.00     0.029 H 
ATOM     55  H   UNL     1     -47.803  30.204  20.701  1.00  0.00     0.029 H 
ATOM     56  H   UNL     1     -45.092  29.341  20.727  1.00  0.00     0.029 H 
ATOM     57  H   UNL     1     -44.334  30.058  22.165  1.00  0.00     0.029 H 
ATOM     58  H   UNL     1     -45.712  32.123  21.955  1.00  0.00     0.027 H 
ATOM     59  H   UNL     1     -45.842  31.660  20.240  1.00  0.00     0.027 H 
ENDBRANCH  47  49
ENDBRANCH  43  47
ENDBRANCH  31  32
ENDBRANCH   1  31
TORSDOF 8
ENDMDL
MODEL 5
REMARK VINA RESULT:      -9.3      1.738      2.454
REMARK SMILES Nc1ncnc2c1ccn2[C@@H]1O[C@H](COc2ccc3ccc(NC4CCC4)nc3c2)[C@@H](O)[C@@H]1F
REMARK SMILES IDX 14 1 13 4 11 5 12 6 33 7 31 9 34 10 10 14 2 15 3 16 7 17
REMARK SMILES IDX 4 18 6 19 8 20 5 21 9 23 1 26 32 29 15 31 16 32 17 33 30 34
REMARK SMILES IDX 18 35 29 37 19 39 28 41 20 42 22 43 21 44 23 47 24 49 25 50
REMARK SMILES IDX 27 51 26 53
REMARK H PARENT 14 2 14 3 11 8 33 11 13 12 31 13 4 22 8 24 9 25 1 27 1 28
REMARK H PARENT 32 30 17 36 30 38 18 40 20 45 21 46 23 48 24 52 25 54 25 55
REMARK H PARENT 27 56 27 57 26 58 26 59
REMARK Flexibility Score: inf
ROOT
ATOM      1  C   UNL     1     -45.939  35.174  28.048  1.00  0.00     0.117 C 
ATOM      2  H   UNL     1     -45.944  35.450  26.989  1.00  0.00     0.073 H 
ATOM      3  H   UNL     1     -44.929  35.330  28.448  1.00  0.00     0.073 H 
ENDROOT
BRANCH   1   4
ATOM      4  C   UNL     1     -46.923  36.049  28.830  1.00  0.00     0.123 C 
ATOM      5  C   UNL     1     -46.944  38.334  28.380  1.00  0.00     0.169 C 
ATOM      6  O   UNL     1     -46.297  37.306  29.160  1.00  0.00    -0.345 OA
ATOM      7  C   UNL     1     -47.825  37.663  27.334  1.00  0.00     0.173 C 
ATOM      8  H   UNL     1     -47.578  38.878  29.092  1.00  0.00     0.088 H 
ATOM      9  C   UNL     1     -48.192  36.373  28.031  1.00  0.00     0.119 C 
ATOM     10  F   UNL     1     -47.148  37.369  26.195  1.00  0.00    -0.239 F 
ATOM     11  H   UNL     1     -48.682  38.288  27.062  1.00  0.00     0.074 H 
ATOM     12  H   UNL     1     -47.181  35.552  29.772  1.00  0.00     0.067 H 
ATOM     13  H   UNL     1     -48.483  35.582  27.335  1.00  0.00     0.066 H 
BRANCH   5  14
ATOM     14  N   UNL     1     -45.972  39.284  27.865  1.00  0.00    -0.303 N 
ATOM     15  C   UNL     1     -45.065  42.323  26.288  1.00  0.00     0.136 A 
ATOM     16  N   UNL     1     -46.263  42.877  26.027  1.00  0.00    -0.219 NA
ATOM     17  C   UNL     1     -45.016  41.075  26.928  1.00  0.00     0.061 A 
ATOM     18  C   UNL     1     -47.368  42.196  26.387  1.00  0.00     0.120 A 
ATOM     19  C   UNL     1     -46.234  40.485  27.249  1.00  0.00     0.147 A 
ATOM     20  C   UNL     1     -43.995  40.190  27.366  1.00  0.00    -0.031 A 
ATOM     21  N   UNL     1     -47.448  41.005  27.000  1.00  0.00    -0.218 NA
ATOM     22  H   UNL     1     -48.314  42.675  26.152  1.00  0.00     0.106 H 
ATOM     23  C   UNL     1     -44.606  39.098  27.941  1.00  0.00     0.009 A 
ATOM     24  H   UNL     1     -42.927  40.334  27.263  1.00  0.00     0.065 H 
ATOM     25  H   UNL     1     -44.185  38.207  28.388  1.00  0.00     0.082 H 
BRANCH  15  26
ATOM     26  N   UNL     1     -43.937  43.044  25.922  1.00  0.00    -0.383 N 
ATOM     27  H   UNL     1     -43.099  42.527  26.158  1.00  0.00     0.158 HD
ATOM     28  H   UNL     1     -43.974  43.437  24.991  1.00  0.00     0.158 HD
ENDBRANCH  15  26
ENDBRANCH   5  14
BRANCH   9  29
ATOM     29  O   UNL     1     -49.298  36.621  28.909  1.00  0.00    -0.387 OA
ATOM     30  H   UNL     1     -48.938  37.023  29.721  1.00  0.00     0.211 HD
ENDBRANCH   9  29
ENDBRANCH   1   4
BRANCH   1  31
ATOM     31  O   UNL     1     -46.326  33.805  28.197  1.00  0.00    -0.491 OA
BRANCH  31  32
ATOM     32  C   UNL     1     -46.670  33.136  27.054  1.00  0.00     0.121 A 
ATOM     33  C   UNL     1     -46.149  33.679  25.882  1.00  0.00    -0.019 A 
ATOM     34  C   UNL     1     -47.474  31.995  26.980  1.00  0.00     0.007 A 
ATOM     35  C   UNL     1     -46.426  33.087  24.651  1.00  0.00    -0.049 A 
ATOM     36  H   UNL     1     -45.524  34.567  25.924  1.00  0.00     0.066 H 
ATOM     37  C   UNL     1     -47.766  31.383  25.768  1.00  0.00     0.076 A 
ATOM     38  H   UNL     1     -47.899  31.545  27.872  1.00  0.00     0.069 H 
ATOM     39  C   UNL     1     -47.232  31.940  24.589  1.00  0.00     0.001 A 
ATOM     40  H   UNL     1     -46.012  33.523  23.745  1.00  0.00     0.063 H 
ATOM     41  N   UNL     1     -48.543  30.285  25.757  1.00  0.00    -0.231 NA
ATOM     42  C   UNL     1     -47.537  31.315  23.378  1.00  0.00    -0.049 A 
ATOM     43  C   UNL     1     -48.820  29.691  24.579  1.00  0.00     0.126 A 
ATOM     44  C   UNL     1     -48.341  30.181  23.373  1.00  0.00    -0.019 A 
ATOM     45  H   UNL     1     -47.158  31.705  22.437  1.00  0.00     0.063 H 
ATOM     46  H   UNL     1     -48.591  29.700  22.434  1.00  0.00     0.066 H 
BRANCH  43  47
ATOM     47  N   UNL     1     -49.642  28.561  24.654  1.00  0.00    -0.367 N 
ATOM     48  H   UNL     1     -50.263  28.707  25.446  1.00  0.00     0.162 HD
BRANCH  47  49
ATOM     49  C   UNL     1     -49.238  27.210  24.410  1.00  0.00     0.028 C 
ATOM     50  C   UNL     1     -47.990  26.789  25.220  1.00  0.00    -0.033 C 
ATOM     51  C   UNL     1     -50.048  26.198  25.254  1.00  0.00    -0.033 C 
ATOM     52  H   UNL     1     -49.210  26.969  23.344  1.00  0.00     0.053 H 
ATOM     53  C   UNL     1     -48.935  26.263  26.319  1.00  0.00    -0.049 C 
ATOM     54  H   UNL     1     -47.307  27.584  25.532  1.00  0.00     0.029 H 
ATOM     55  H   UNL     1     -47.406  26.001  24.732  1.00  0.00     0.029 H 
ATOM     56  H   UNL     1     -50.139  25.215  24.778  1.00  0.00     0.029 H 
ATOM     57  H   UNL     1     -51.040  26.514  25.589  1.00  0.00     0.029 H 
ATOM     58  H   UNL     1     -49.129  26.987  27.117  1.00  0.00     0.027 H 
ATOM     59  H   UNL     1     -48.653  25.307  26.767  1.00  0.00     0.027 H 
ENDBRANCH  47  49
ENDBRANCH  43  47
ENDBRANCH  31  32
ENDBRANCH   1  31
TORSDOF 8
ENDMDL
MODEL 6
REMARK VINA RESULT:      -9.1      3.013     10.780
REMARK SMILES Nc1ncnc2c1ccn2[C@@H]1O[C@H](COc2ccc3ccc(NC4CCC4)nc3c2)[C@@H](O)[C@@H]1F
REMARK SMILES IDX 14 1 13 4 11 5 12 6 33 7 31 9 34 10 10 14 2 15 3 16 7 17
REMARK SMILES IDX 4 18 6 19 8 20 5 21 9 23 1 26 32 29 15 31 16 32 17 33 30 34
REMARK SMILES IDX 18 35 29 37 19 39 28 41 20 42 22 43 21 44 23 47 24 49 25 50
REMARK SMILES IDX 27 51 26 53
REMARK H PARENT 14 2 14 3 11 8 33 11 13 12 31 13 4 22 8 24 9 25 1 27 1 28
REMARK H PARENT 32 30 17 36 30 38 18 40 20 45 21 46 23 48 24 52 25 54 25 55
REMARK H PARENT 27 56 27 57 26 58 26 59
REMARK Flexibility Score: inf
ROOT
ATOM      1  C   UNL     1     -48.229  35.891  27.044  1.00  0.00     0.117 C 
ATOM      2  H   UNL     1     -47.722  36.317  26.172  1.00  0.00     0.073 H 
ATOM      3  H   UNL     1     -49.210  35.510  26.731  1.00  0.00     0.073 H 
ENDROOT
BRANCH   1   4
ATOM      4  C   UNL     1     -47.409  34.735  27.623  1.00  0.00     0.123 C 
ATOM      5  C   UNL     1     -47.138  32.828  26.313  1.00  0.00     0.169 C 
ATOM      6  O   UNL     1     -48.016  33.478  27.256  1.00  0.00    -0.345 OA
ATOM      7  C   UNL     1     -46.075  33.828  25.875  1.00  0.00     0.173 C 
ATOM      8  H   UNL     1     -46.661  32.017  26.878  1.00  0.00     0.088 H 
ATOM      9  C   UNL     1     -45.968  34.709  27.098  1.00  0.00     0.119 C 
ATOM     10  F   UNL     1     -46.476  34.585  24.822  1.00  0.00    -0.239 F 
ATOM     11  H   UNL     1     -45.140  33.332  25.594  1.00  0.00     0.074 H 
ATOM     12  H   UNL     1     -47.416  34.797  28.718  1.00  0.00     0.067 H 
ATOM     13  H   UNL     1     -45.568  35.702  26.873  1.00  0.00     0.066 H 
BRANCH   5  14
ATOM     14  N   UNL     1     -47.896  32.209  25.239  1.00  0.00    -0.303 N 
ATOM     15  C   UNL     1     -48.165  30.376  22.221  1.00  0.00     0.136 A 
ATOM     16  N   UNL     1     -46.876  30.143  21.913  1.00  0.00    -0.219 NA
ATOM     17  C   UNL     1     -48.468  31.097  23.386  1.00  0.00     0.061 A 
ATOM     18  C   UNL     1     -45.930  30.626  22.741  1.00  0.00     0.120 A 
ATOM     19  C   UNL     1     -47.394  31.533  24.153  1.00  0.00     0.147 A 
ATOM     20  C   UNL     1     -49.652  31.534  24.038  1.00  0.00    -0.031 A 
ATOM     21  N   UNL     1     -46.095  31.324  23.875  1.00  0.00    -0.218 NA
ATOM     22  H   UNL     1     -44.903  30.421  22.454  1.00  0.00     0.106 H 
ATOM     23  C   UNL     1     -49.275  32.212  25.176  1.00  0.00     0.009 A 
ATOM     24  H   UNL     1     -50.669  31.375  23.706  1.00  0.00     0.065 H 
ATOM     25  H   UNL     1     -49.871  32.699  25.938  1.00  0.00     0.082 H 
BRANCH  15  26
ATOM     26  N   UNL     1     -49.127  29.860  21.363  1.00  0.00    -0.383 N 
ATOM     27  H   UNL     1     -48.935  30.145  20.410  1.00  0.00     0.158 HD
ATOM     28  H   UNL     1     -49.335  28.881  21.506  1.00  0.00     0.158 HD
ENDBRANCH  15  26
ENDBRANCH   5  14
BRANCH   9  29
ATOM     29  O   UNL     1     -45.091  34.082  28.043  1.00  0.00    -0.387 OA
ATOM     30  H   UNL     1     -45.223  34.529  28.900  1.00  0.00     0.211 HD
ENDBRANCH   9  29
ENDBRANCH   1   4
BRANCH   1  31
ATOM     31  O   UNL     1     -48.385  36.892  28.054  1.00  0.00    -0.491 OA
BRANCH  31  32
ATOM     32  C   UNL     1     -48.111  38.181  27.687  1.00  0.00     0.121 A 
ATOM     33  C   UNL     1     -49.168  39.073  27.855  1.00  0.00    -0.019 A 
ATOM     34  C   UNL     1     -46.896  38.650  27.178  1.00  0.00     0.007 A 
ATOM     35  C   UNL     1     -49.013  40.417  27.519  1.00  0.00    -0.049 A 
ATOM     36  H   UNL     1     -50.118  38.722  28.248  1.00  0.00     0.066 H 
ATOM     37  C   UNL     1     -46.712  39.984  26.836  1.00  0.00     0.076 A 
ATOM     38  H   UNL     1     -46.050  37.984  27.031  1.00  0.00     0.069 H 
ATOM     39  C   UNL     1     -47.788  40.876  27.011  1.00  0.00     0.001 A 
ATOM     40  H   UNL     1     -49.847  41.099  27.655  1.00  0.00     0.063 H 
ATOM     41  N   UNL     1     -45.520  40.379  26.352  1.00  0.00    -0.231 NA
ATOM     42  C   UNL     1     -47.588  42.213  26.660  1.00  0.00    -0.049 A 
ATOM     43  C   UNL     1     -45.343  41.675  26.026  1.00  0.00     0.126 A 
ATOM     44  C   UNL     1     -46.354  42.615  26.160  1.00  0.00    -0.019 A 
ATOM     45  H   UNL     1     -48.384  42.944  26.768  1.00  0.00     0.063 H 
ATOM     46  H   UNL     1     -46.199  43.649  25.874  1.00  0.00     0.066 H 
BRANCH  43  47
ATOM     47  N   UNL     1     -44.080  42.002  25.522  1.00  0.00    -0.367 N 
ATOM     48  H   UNL     1     -43.685  41.140  25.151  1.00  0.00     0.162 HD
BRANCH  47  49
ATOM     49  C   UNL     1     -43.151  42.918  26.109  1.00  0.00     0.028 C 
ATOM     50  C   UNL     1     -43.154  42.885  27.655  1.00  0.00    -0.033 C 
ATOM     51  C   UNL     1     -41.718  42.342  26.163  1.00  0.00    -0.033 C 
ATOM     52  H   UNL     1     -43.208  43.914  25.660  1.00  0.00     0.053 H 
ATOM     53  C   UNL     1     -42.019  41.845  27.591  1.00  0.00    -0.049 C 
ATOM     54  H   UNL     1     -44.072  42.547  28.145  1.00  0.00     0.029 H 
ATOM     55  H   UNL     1     -42.850  43.836  28.106  1.00  0.00     0.029 H 
ATOM     56  H   UNL     1     -40.940  43.114  26.125  1.00  0.00     0.029 H 
ATOM     57  H   UNL     1     -41.468  41.565  25.435  1.00  0.00     0.029 H 
ATOM     58  H   UNL     1     -42.368  40.807  27.632  1.00  0.00     0.027 H 
ATOM     59  H   UNL     1     -41.213  41.978  28.318  1.00  0.00     0.027 H 
ENDBRANCH  47  49
ENDBRANCH  43  47
ENDBRANCH  31  32
ENDBRANCH   1  31
TORSDOF 8
ENDMDL
MODEL 7
REMARK VINA RESULT:      -9.0      3.155     11.598
REMARK SMILES Nc1ncnc2c1ccn2[C@@H]1O[C@H](COc2ccc3ccc(NC4CCC4)nc3c2)[C@@H](O)[C@@H]1F
REMARK SMILES IDX 14 1 13 4 11 5 12 6 33 7 31 9 34 10 10 14 2 15 3 16 7 17
REMARK SMILES IDX 4 18 6 19 8 20 5 21 9 23 1 26 32 29 15 31 16 32 17 33 30 34
REMARK SMILES IDX 18 35 29 37 19 39 28 41 20 42 22 43 21 44 23 47 24 49 25 50
REMARK SMILES IDX 27 51 26 53
REMARK H PARENT 14 2 14 3 11 8 33 11 13 12 31 13 4 22 8 24 9 25 1 27 1 28
REMARK H PARENT 32 30 17 36 30 38 18 40 20 45 21 46 23 48 24 52 25 54 25 55
REMARK H PARENT 27 56 27 57 26 58 26 59
REMARK Flexibility Score: inf
ROOT
ATOM      1  C   UNL     1     -46.221  31.468  24.469  1.00  0.00     0.117 C 
ATOM      2  H   UNL     1     -46.641  30.933  25.327  1.00  0.00     0.073 H 
ATOM      3  H   UNL     1     -45.134  31.543  24.597  1.00  0.00     0.073 H 
ENDROOT
BRANCH   1   4
ATOM      4  C   UNL     1     -46.516  30.707  23.173  1.00  0.00     0.123 C 
ATOM      5  C   UNL     1     -48.149  29.047  23.233  1.00  0.00     0.169 C 
ATOM      6  O   UNL     1     -46.751  29.315  23.472  1.00  0.00    -0.345 OA
ATOM      7  C   UNL     1     -48.867  30.375  23.031  1.00  0.00     0.173 C 
ATOM      8  H   UNL     1     -48.175  28.475  22.296  1.00  0.00     0.088 H 
ATOM      9  C   UNL     1     -47.763  31.229  22.450  1.00  0.00     0.119 C 
ATOM     10  F   UNL     1     -49.279  30.927  24.201  1.00  0.00    -0.239 F 
ATOM     11  H   UNL     1     -49.743  30.269  22.383  1.00  0.00     0.074 H 
ATOM     12  H   UNL     1     -45.642  30.760  22.514  1.00  0.00     0.067 H 
ATOM     13  H   UNL     1     -47.935  32.299  22.593  1.00  0.00     0.066 H 
BRANCH   5  14
ATOM     14  N   UNL     1     -48.697  28.188  24.269  1.00  0.00    -0.303 N 
ATOM     15  C   UNL     1     -51.357  26.476  25.862  1.00  0.00     0.136 A 
ATOM     16  N   UNL     1     -52.411  26.811  25.098  1.00  0.00    -0.219 NA
ATOM     17  C   UNL     1     -50.088  26.979  25.534  1.00  0.00     0.061 A 
ATOM     18  C   UNL     1     -52.198  27.630  24.049  1.00  0.00     0.120 A 
ATOM     19  C   UNL     1     -50.010  27.809  24.422  1.00  0.00     0.147 A 
ATOM     20  C   UNL     1     -48.775  26.864  26.064  1.00  0.00    -0.031 A 
ATOM     21  N   UNL     1     -51.041  28.170  23.638  1.00  0.00    -0.218 NA
ATOM     22  H   UNL     1     -53.076  27.882  23.461  1.00  0.00     0.106 H 
ATOM     23  C   UNL     1     -47.937  27.613  25.268  1.00  0.00     0.009 A 
ATOM     24  H   UNL     1     -48.478  26.300  26.938  1.00  0.00     0.065 H 
ATOM     25  H   UNL     1     -46.871  27.790  25.334  1.00  0.00     0.082 H 
BRANCH  15  26
ATOM     26  N   UNL     1     -51.593  25.622  26.931  1.00  0.00    -0.383 N 
ATOM     27  H   UNL     1     -50.802  25.626  27.564  1.00  0.00     0.158 HD
ATOM     28  H   UNL     1     -52.506  25.720  27.353  1.00  0.00     0.158 HD
ENDBRANCH  15  26
ENDBRANCH   5  14
BRANCH   9  29
ATOM     29  O   UNL     1     -47.679  30.978  21.040  1.00  0.00    -0.387 OA
ATOM     30  H   UNL     1     -48.030  31.766  20.586  1.00  0.00     0.211 HD
ENDBRANCH   9  29
ENDBRANCH   1   4
BRANCH   1  31
ATOM     31  O   UNL     1     -46.801  32.772  24.375  1.00  0.00    -0.491 OA
BRANCH  31  32
ATOM     32  C   UNL     1     -46.675  33.580  25.473  1.00  0.00     0.121 A 
ATOM     33  C   UNL     1     -46.384  32.911  26.659  1.00  0.00    -0.019 A 
ATOM     34  C   UNL     1     -46.814  34.971  25.489  1.00  0.00     0.007 A 
ATOM     35  C   UNL     1     -46.230  33.622  27.847  1.00  0.00    -0.049 A 
ATOM     36  H   UNL     1     -46.276  31.829  26.661  1.00  0.00     0.066 H 
ATOM     37  C   UNL     1     -46.665  35.707  26.658  1.00  0.00     0.076 A 
ATOM     38  H   UNL     1     -47.043  35.527  24.585  1.00  0.00     0.069 H 
ATOM     39  C   UNL     1     -46.369  35.019  27.851  1.00  0.00     0.001 A 
ATOM     40  H   UNL     1     -46.003  33.085  28.764  1.00  0.00     0.063 H 
ATOM     41  N   UNL     1     -46.807  37.044  26.614  1.00  0.00    -0.231 NA
ATOM     42  C   UNL     1     -46.225  35.773  29.018  1.00  0.00    -0.049 A 
ATOM     43  C   UNL     1     -46.656  37.755  27.750  1.00  0.00     0.126 A 
ATOM     44  C   UNL     1     -46.373  37.154  28.967  1.00  0.00    -0.019 A 
ATOM     45  H   UNL     1     -46.003  35.294  29.968  1.00  0.00     0.063 H 
ATOM     46  H   UNL     1     -46.275  37.742  29.873  1.00  0.00     0.066 H 
BRANCH  43  47
ATOM     47  N   UNL     1     -46.828  39.138  27.621  1.00  0.00    -0.367 N 
ATOM     48  H   UNL     1     -47.432  39.280  26.814  1.00  0.00     0.162 HD
BRANCH  47  49
ATOM     49  C   UNL     1     -45.825  40.135  27.840  1.00  0.00     0.028 C 
ATOM     50  C   UNL     1     -44.403  39.665  27.457  1.00  0.00    -0.033 C 
ATOM     51  C   UNL     1     -45.739  41.142  26.670  1.00  0.00    -0.033 C 
ATOM     52  H   UNL     1     -45.916  40.608  28.822  1.00  0.00     0.053 H 
ATOM     53  C   UNL     1     -44.630  40.265  26.055  1.00  0.00    -0.049 C 
ATOM     54  H   UNL     1     -44.210  38.589  27.480  1.00  0.00     0.029 H 
ATOM     55  H   UNL     1     -43.615  40.171  28.026  1.00  0.00     0.029 H 
ATOM     56  H   UNL     1     -45.388  42.134  26.979  1.00  0.00     0.029 H 
ATOM     57  H   UNL     1     -46.635  41.268  26.057  1.00  0.00     0.029 H 
ATOM     58  H   UNL     1     -44.997  39.541  25.320  1.00  0.00     0.027 H 
ATOM     59  H   UNL     1     -43.781  40.805  25.628  1.00  0.00     0.027 H 
ENDBRANCH  47  49
ENDBRANCH  43  47
ENDBRANCH  31  32
ENDBRANCH   1  31
TORSDOF 8
ENDMDL
