MODEL 1
REMARK VINA RESULT:      -8.8      0.000      0.000
REMARK SMILES CCc1cc(NCCOC)c2c(F)cc(OCc3cncc(-n4cc(-c5ccn(C)n5)c5c(N)ncnc54)c3)cc2n1
REMARK SMILES IDX 3 1 4 2 5 3 11 4 12 5 13 6 14 7 15 8 40 9 41 10 42 11 2 15
REMARK SMILES IDX 1 18 6 22 7 24 8 27 9 30 10 31 16 35 17 36 18 39 19 40 39 41
REMARK SMILES IDX 20 42 22 44 21 46 23 48 24 49 38 50 25 51 32 53 37 54 33 55
REMARK SMILES IDX 36 56 35 57 26 59 27 60 31 61 28 62 29 64 30 66 34 70
REMARK H PARENT 4 12 14 13 40 14 2 16 2 17 1 19 1 20 1 21 6 23 7 25 7 26 8 28
REMARK H PARENT 8 29 10 32 10 33 10 34 17 37 17 38 19 43 39 45 21 47 24 52
REMARK H PARENT 36 58 27 63 28 65 30 67 30 68 30 69 34 71 34 72
REMARK Flexibility Score: inf
ROOT
ATOM      1  C   UNL     1     -48.083  27.178  24.922  1.00  0.00     0.043 A 
ATOM      2  C   UNL     1     -49.369  26.972  24.445  1.00  0.00    -0.017 A 
ATOM      3  C   UNL     1     -50.163  28.068  24.095  1.00  0.00     0.048 A 
ATOM      4  C   UNL     1     -49.638  29.373  24.285  1.00  0.00     0.059 A 
ATOM      5  C   UNL     1     -50.325  30.573  23.991  1.00  0.00     0.138 A 
ATOM      6  F   UNL     1     -51.583  30.528  23.519  1.00  0.00    -0.206 F 
ATOM      7  C   UNL     1     -49.739  31.829  24.130  1.00  0.00     0.017 A 
ATOM      8  C   UNL     1     -48.428  31.909  24.564  1.00  0.00     0.124 A 
ATOM      9  C   UNL     1     -47.753  30.738  24.920  1.00  0.00     0.007 A 
ATOM     10  C   UNL     1     -48.322  29.480  24.776  1.00  0.00     0.079 A 
ATOM     11  N   UNL     1     -47.567  28.416  25.079  1.00  0.00    -0.252 NA
ATOM     12  H   UNL     1     -49.758  25.963  24.368  1.00  0.00     0.066 H 
ATOM     13  H   UNL     1     -50.324  32.699  23.860  1.00  0.00     0.069 H 
ATOM     14  H   UNL     1     -46.726  30.804  25.276  1.00  0.00     0.069 H 
ENDROOT
BRANCH   1  15
ATOM     15  C   UNL     1     -47.246  25.988  25.331  1.00  0.00    -0.013 C 
ATOM     16  H   UNL     1     -47.781  25.074  25.045  1.00  0.00     0.033 H 
ATOM     17  H   UNL     1     -46.304  26.009  24.771  1.00  0.00     0.033 H 
BRANCH  15  18
ATOM     18  C   UNL     1     -46.915  25.932  26.817  1.00  0.00    -0.060 C 
ATOM     19  H   UNL     1     -47.820  26.013  27.429  1.00  0.00     0.023 H 
ATOM     20  H   UNL     1     -46.249  26.758  27.086  1.00  0.00     0.023 H 
ATOM     21  H   UNL     1     -46.411  24.996  27.077  1.00  0.00     0.023 H 
ENDBRANCH  15  18
ENDBRANCH   1  15
BRANCH   3  22
ATOM     22  N   UNL     1     -51.466  27.861  23.594  1.00  0.00    -0.382 N 
ATOM     23  H   UNL     1     -52.163  28.374  24.139  1.00  0.00     0.160 HD
BRANCH  22  24
ATOM     24  C   UNL     1     -51.672  28.060  22.152  1.00  0.00     0.038 C 
ATOM     25  H   UNL     1     -51.206  29.013  21.876  1.00  0.00     0.051 H 
ATOM     26  H   UNL     1     -52.732  28.182  21.900  1.00  0.00     0.051 H 
BRANCH  24  27
ATOM     27  C   UNL     1     -51.045  26.945  21.303  1.00  0.00     0.063 C 
ATOM     28  H   UNL     1     -51.678  26.720  20.437  1.00  0.00     0.059 H 
ATOM     29  H   UNL     1     -50.939  26.034  21.903  1.00  0.00     0.059 H 
BRANCH  27  30
ATOM     30  O   UNL     1     -49.757  27.370  20.848  1.00  0.00    -0.383 OA
BRANCH  30  31
ATOM     31  C   UNL     1     -49.838  27.986  19.568  1.00  0.00     0.036 C 
ATOM     32  H   UNL     1     -50.063  29.050  19.668  1.00  0.00     0.053 H 
ATOM     33  H   UNL     1     -50.601  27.494  18.955  1.00  0.00     0.053 H 
ATOM     34  H   UNL     1     -48.869  27.877  19.073  1.00  0.00     0.053 H 
ENDBRANCH  30  31
ENDBRANCH  27  30
ENDBRANCH  24  27
ENDBRANCH  22  24
ENDBRANCH   3  22
BRANCH   8  35
ATOM     35  O   UNL     1     -47.666  33.045  24.617  1.00  0.00    -0.489 OA
BRANCH  35  36
ATOM     36  C   UNL     1     -46.953  33.343  25.828  1.00  0.00     0.115 C 
ATOM     37  H   UNL     1     -45.899  33.434  25.540  1.00  0.00     0.076 H 
ATOM     38  H   UNL     1     -47.020  32.487  26.511  1.00  0.00     0.076 H 
BRANCH  36  39
ATOM     39  C   UNL     1     -47.345  34.626  26.526  1.00  0.00     0.010 A 
ATOM     40  C   UNL     1     -48.660  34.822  26.923  1.00  0.00     0.034 A 
ATOM     41  C   UNL     1     -46.444  35.666  26.793  1.00  0.00    -0.028 A 
ATOM     42  N   UNL     1     -49.114  35.953  27.507  1.00  0.00    -0.262 NA
ATOM     43  H   UNL     1     -49.418  34.057  26.775  1.00  0.00     0.084 H 
ATOM     44  C   UNL     1     -46.887  36.883  27.323  1.00  0.00     0.066 A 
ATOM     45  H   UNL     1     -45.394  35.510  26.570  1.00  0.00     0.065 H 
ATOM     46  C   UNL     1     -48.224  36.964  27.685  1.00  0.00     0.051 A 
ATOM     47  H   UNL     1     -48.677  37.856  28.101  1.00  0.00     0.086 H 
BRANCH  44  48
ATOM     48  N   UNL     1     -46.004  38.004  27.402  1.00  0.00    -0.299 N 
ATOM     49  C   UNL     1     -45.921  39.001  26.445  1.00  0.00     0.021 A 
ATOM     50  C   UNL     1     -45.143  38.351  28.439  1.00  0.00     0.150 A 
ATOM     51  C   UNL     1     -45.074  39.996  26.886  1.00  0.00     0.033 A 
ATOM     52  H   UNL     1     -46.526  38.978  25.551  1.00  0.00     0.083 H 
ATOM     53  C   UNL     1     -44.538  39.573  28.135  1.00  0.00     0.071 A 
ATOM     54  N   UNL     1     -44.911  37.624  29.551  1.00  0.00    -0.218 NA
ATOM     55  C   UNL     1     -43.613  40.065  29.075  1.00  0.00     0.137 A 
ATOM     56  C   UNL     1     -44.029  38.204  30.374  1.00  0.00     0.120 A 
ATOM     57  N   UNL     1     -43.388  39.369  30.206  1.00  0.00    -0.219 NA
ATOM     58  H   UNL     1     -43.804  37.667  31.291  1.00  0.00     0.106 H 
BRANCH  51  59
ATOM     59  C   UNL     1     -44.819  41.265  26.195  1.00  0.00     0.095 A 
ATOM     60  C   UNL     1     -45.828  42.131  25.712  1.00  0.00    -0.016 A 
ATOM     61  N   UNL     1     -43.596  41.775  26.003  1.00  0.00    -0.173 NA
ATOM     62  C   UNL     1     -45.152  43.211  25.192  1.00  0.00     0.025 A 
ATOM     63  H   UNL     1     -46.901  41.996  25.737  1.00  0.00     0.066 H 
ATOM     64  N   UNL     1     -43.828  42.951  25.387  1.00  0.00    -0.275 N 
ATOM     65  H   UNL     1     -45.499  44.115  24.714  1.00  0.00     0.084 H 
BRANCH  64  66
ATOM     66  C   UNL     1     -42.716  43.793  25.019  1.00  0.00     0.030 C 
ATOM     67  H   UNL     1     -41.902  43.615  25.726  1.00  0.00     0.048 H 
ATOM     68  H   UNL     1     -43.024  44.841  25.059  1.00  0.00     0.048 H 
ATOM     69  H   UNL     1     -42.409  43.532  24.004  1.00  0.00     0.048 H 
ENDBRANCH  64  66
ENDBRANCH  51  59
BRANCH  55  70
ATOM     70  N   UNL     1     -42.896  41.240  28.919  1.00  0.00    -0.383 N 
ATOM     71  H   UNL     1     -41.969  41.093  28.508  1.00  0.00     0.158 HD
ATOM     72  H   UNL     1     -43.460  41.984  28.537  1.00  0.00     0.158 HD
ENDBRANCH  55  70
ENDBRANCH  44  48
ENDBRANCH  36  39
ENDBRANCH  35  36
ENDBRANCH   8  35
TORSDOF 14
ENDMDL
MODEL 2
REMARK VINA RESULT:      -8.7      2.187      2.845
REMARK SMILES CCc1cc(NCCOC)c2c(F)cc(OCc3cncc(-n4cc(-c5ccn(C)n5)c5c(N)ncnc54)c3)cc2n1
REMARK SMILES IDX 3 1 4 2 5 3 11 4 12 5 13 6 14 7 15 8 40 9 41 10 42 11 2 15
REMARK SMILES IDX 1 18 6 22 7 24 8 27 9 30 10 31 16 35 17 36 18 39 19 40 39 41
REMARK SMILES IDX 20 42 22 44 21 46 23 48 24 49 38 50 25 51 32 53 37 54 33 55
REMARK SMILES IDX 36 56 35 57 26 59 27 60 31 61 28 62 29 64 30 66 34 70
REMARK H PARENT 4 12 14 13 40 14 2 16 2 17 1 19 1 20 1 21 6 23 7 25 7 26 8 28
REMARK H PARENT 8 29 10 32 10 33 10 34 17 37 17 38 19 43 39 45 21 47 24 52
REMARK H PARENT 36 58 27 63 28 65 30 67 30 68 30 69 34 71 34 72
REMARK Flexibility Score: inf
ROOT
ATOM      1  C   UNL     1     -49.365  28.784  24.524  1.00  0.00     0.043 A 
ATOM      2  C   UNL     1     -48.774  28.834  23.269  1.00  0.00    -0.017 A 
ATOM      3  C   UNL     1     -47.864  29.852  22.971  1.00  0.00     0.048 A 
ATOM      4  C   UNL     1     -47.605  30.840  23.957  1.00  0.00     0.059 A 
ATOM      5  C   UNL     1     -46.722  31.932  23.796  1.00  0.00     0.138 A 
ATOM      6  F   UNL     1     -46.077  32.108  22.630  1.00  0.00    -0.206 F 
ATOM      7  C   UNL     1     -46.449  32.836  24.820  1.00  0.00     0.017 A 
ATOM      8  C   UNL     1     -47.056  32.654  26.051  1.00  0.00     0.124 A 
ATOM      9  C   UNL     1     -47.980  31.617  26.209  1.00  0.00     0.007 A 
ATOM     10  C   UNL     1     -48.252  30.704  25.200  1.00  0.00     0.079 A 
ATOM     11  N   UNL     1     -49.101  29.704  25.476  1.00  0.00    -0.252 NA
ATOM     12  H   UNL     1     -49.041  28.097  22.520  1.00  0.00     0.066 H 
ATOM     13  H   UNL     1     -45.741  33.632  24.625  1.00  0.00     0.069 H 
ATOM     14  H   UNL     1     -48.468  31.484  27.174  1.00  0.00     0.069 H 
ENDROOT
BRANCH   1  15
ATOM     15  C   UNL     1     -50.374  27.701  24.824  1.00  0.00    -0.013 C 
ATOM     16  H   UNL     1     -49.897  26.727  24.657  1.00  0.00     0.033 H 
ATOM     17  H   UNL     1     -50.649  27.757  25.884  1.00  0.00     0.033 H 
BRANCH  15  18
ATOM     18  C   UNL     1     -51.650  27.783  23.996  1.00  0.00    -0.060 C 
ATOM     19  H   UNL     1     -51.991  26.787  23.693  1.00  0.00     0.023 H 
ATOM     20  H   UNL     1     -51.475  28.371  23.090  1.00  0.00     0.023 H 
ATOM     21  H   UNL     1     -52.458  28.263  24.557  1.00  0.00     0.023 H 
ENDBRANCH  15  18
ENDBRANCH   1  15
BRANCH   3  22
ATOM     22  N   UNL     1     -47.250  29.897  21.701  1.00  0.00    -0.382 N 
ATOM     23  H   UNL     1     -46.710  29.049  21.515  1.00  0.00     0.160 HD
BRANCH  22  24
ATOM     24  C   UNL     1     -48.101  30.244  20.553  1.00  0.00     0.038 C 
ATOM     25  H   UNL     1     -48.583  29.323  20.203  1.00  0.00     0.051 H 
ATOM     26  H   UNL     1     -47.514  30.597  19.697  1.00  0.00     0.051 H 
BRANCH  24  27
ATOM     27  C   UNL     1     -49.194  31.262  20.909  1.00  0.00     0.063 C 
ATOM     28  H   UNL     1     -48.897  32.269  20.597  1.00  0.00     0.059 H 
ATOM     29  H   UNL     1     -49.359  31.268  21.993  1.00  0.00     0.059 H 
BRANCH  27  30
ATOM     30  O   UNL     1     -50.407  30.900  20.244  1.00  0.00    -0.383 OA
BRANCH  30  31
ATOM     31  C   UNL     1     -50.441  29.507  19.954  1.00  0.00     0.036 C 
ATOM     32  H   UNL     1     -50.483  29.341  18.875  1.00  0.00     0.053 H 
ATOM     33  H   UNL     1     -51.301  29.036  20.442  1.00  0.00     0.053 H 
ATOM     34  H   UNL     1     -49.526  29.053  20.343  1.00  0.00     0.053 H 
ENDBRANCH  30  31
ENDBRANCH  27  30
ENDBRANCH  24  27
ENDBRANCH  22  24
ENDBRANCH   3  22
BRANCH   8  35
ATOM     35  O   UNL     1     -46.788  33.360  27.192  1.00  0.00    -0.489 OA
BRANCH  35  36
ATOM     36  C   UNL     1     -45.694  34.291  27.186  1.00  0.00     0.115 C 
ATOM     37  H   UNL     1     -45.519  34.540  26.132  1.00  0.00     0.076 H 
ATOM     38  H   UNL     1     -44.787  33.792  27.546  1.00  0.00     0.076 H 
BRANCH  36  39
ATOM     39  C   UNL     1     -45.929  35.590  27.925  1.00  0.00     0.010 A 
ATOM     40  C   UNL     1     -46.896  35.653  28.918  1.00  0.00     0.034 A 
ATOM     41  C   UNL     1     -45.224  36.770  27.655  1.00  0.00    -0.028 A 
ATOM     42  N   UNL     1     -47.212  36.778  29.597  1.00  0.00    -0.262 NA
ATOM     43  H   UNL     1     -47.473  34.778  29.206  1.00  0.00     0.084 H 
ATOM     44  C   UNL     1     -45.572  37.975  28.278  1.00  0.00     0.066 A 
ATOM     45  H   UNL     1     -44.406  36.733  26.943  1.00  0.00     0.065 H 
ATOM     46  C   UNL     1     -46.554  37.917  29.257  1.00  0.00     0.051 A 
ATOM     47  H   UNL     1     -46.906  38.785  29.802  1.00  0.00     0.086 H 
BRANCH  44  48
ATOM     48  N   UNL     1     -44.989  39.208  27.851  1.00  0.00    -0.299 N 
ATOM     49  C   UNL     1     -45.421  39.937  26.756  1.00  0.00     0.021 A 
ATOM     50  C   UNL     1     -43.969  39.934  28.458  1.00  0.00     0.150 A 
ATOM     51  C   UNL     1     -44.737  41.133  26.699  1.00  0.00     0.033 A 
ATOM     52  H   UNL     1     -46.237  39.596  26.137  1.00  0.00     0.083 H 
ATOM     53  C   UNL     1     -43.779  41.124  27.752  1.00  0.00     0.071 A 
ATOM     54  N   UNL     1     -43.263  39.551  29.542  1.00  0.00    -0.218 NA
ATOM     55  C   UNL     1     -42.761  41.975  28.222  1.00  0.00     0.137 A 
ATOM     56  C   UNL     1     -42.340  40.451  29.902  1.00  0.00     0.120 A 
ATOM     57  N   UNL     1     -42.063  41.626  29.319  1.00  0.00    -0.219 NA
ATOM     58  H   UNL     1     -41.741  40.200  30.772  1.00  0.00     0.106 H 
BRANCH  51  59
ATOM     59  C   UNL     1     -44.995  42.216  25.743  1.00  0.00     0.095 A 
ATOM     60  C   UNL     1     -45.890  43.288  25.969  1.00  0.00    -0.016 A 
ATOM     61  N   UNL     1     -44.358  42.342  24.571  1.00  0.00    -0.173 NA
ATOM     62  C   UNL     1     -45.780  44.085  24.853  1.00  0.00     0.025 A 
ATOM     63  H   UNL     1     -46.528  43.464  26.824  1.00  0.00     0.066 H 
ATOM     64  N   UNL     1     -44.860  43.479  24.051  1.00  0.00    -0.275 N 
ATOM     65  H   UNL     1     -46.270  45.007  24.576  1.00  0.00     0.084 H 
BRANCH  64  66
ATOM     66  C   UNL     1     -44.393  43.940  22.766  1.00  0.00     0.030 C 
ATOM     67  H   UNL     1     -43.620  43.252  22.415  1.00  0.00     0.048 H 
ATOM     68  H   UNL     1     -43.981  44.946  22.867  1.00  0.00     0.048 H 
ATOM     69  H   UNL     1     -45.240  43.950  22.076  1.00  0.00     0.048 H 
ENDBRANCH  64  66
ENDBRANCH  51  59
BRANCH  55  70
ATOM     70  N   UNL     1     -42.412  43.175  27.623  1.00  0.00    -0.383 N 
ATOM     71  H   UNL     1     -42.938  43.974  27.989  1.00  0.00     0.158 HD
ATOM     72  H   UNL     1     -41.413  43.280  27.532  1.00  0.00     0.158 HD
ENDBRANCH  55  70
ENDBRANCH  44  48
ENDBRANCH  36  39
ENDBRANCH  35  36
ENDBRANCH   8  35
TORSDOF 14
ENDMDL
MODEL 3
REMARK VINA RESULT:      -8.6      3.313     12.939
REMARK SMILES CCc1cc(NCCOC)c2c(F)cc(OCc3cncc(-n4cc(-c5ccn(C)n5)c5c(N)ncnc54)c3)cc2n1
REMARK SMILES IDX 3 1 4 2 5 3 11 4 12 5 13 6 14 7 15 8 40 9 41 10 42 11 2 15
REMARK SMILES IDX 1 18 6 22 7 24 8 27 9 30 10 31 16 35 17 36 18 39 19 40 39 41
REMARK SMILES IDX 20 42 22 44 21 46 23 48 24 49 38 50 25 51 32 53 37 54 33 55
REMARK SMILES IDX 36 56 35 57 26 59 27 60 31 61 28 62 29 64 30 66 34 70
REMARK H PARENT 4 12 14 13 40 14 2 16 2 17 1 19 1 20 1 21 6 23 7 25 7 26 8 28
REMARK H PARENT 8 29 10 32 10 33 10 34 17 37 17 38 19 43 39 45 21 47 24 52
REMARK H PARENT 36 58 27 63 28 65 30 67 30 68 30 69 34 71 34 72
REMARK Flexibility Score: inf
ROOT
ATOM      1  C   UNL     1     -47.197  41.476  26.650  1.00  0.00     0.043 A 
ATOM      2  C   UNL     1     -45.814  41.486  26.761  1.00  0.00    -0.017 A 
ATOM      3  C   UNL     1     -45.145  40.342  27.202  1.00  0.00     0.048 A 
ATOM      4  C   UNL     1     -45.914  39.207  27.571  1.00  0.00     0.059 A 
ATOM      5  C   UNL     1     -45.381  37.987  28.046  1.00  0.00     0.138 A 
ATOM      6  F   UNL     1     -44.052  37.851  28.204  1.00  0.00    -0.206 F 
ATOM      7  C   UNL     1     -46.175  36.878  28.329  1.00  0.00     0.017 A 
ATOM      8  C   UNL     1     -47.541  36.967  28.128  1.00  0.00     0.124 A 
ATOM      9  C   UNL     1     -48.093  38.184  27.720  1.00  0.00     0.007 A 
ATOM     10  C   UNL     1     -47.312  39.293  27.424  1.00  0.00     0.079 A 
ATOM     11  N   UNL     1     -47.933  40.391  26.972  1.00  0.00    -0.252 NA
ATOM     12  H   UNL     1     -45.263  42.390  26.526  1.00  0.00     0.066 H 
ATOM     13  H   UNL     1     -45.687  35.972  28.665  1.00  0.00     0.069 H 
ATOM     14  H   UNL     1     -49.170  38.256  27.576  1.00  0.00     0.069 H 
ENDROOT
BRANCH   1  15
ATOM     15  C   UNL     1     -47.913  42.729  26.206  1.00  0.00    -0.013 C 
ATOM     16  H   UNL     1     -48.653  42.454  25.444  1.00  0.00     0.033 H 
ATOM     17  H   UNL     1     -48.458  43.148  27.061  1.00  0.00     0.033 H 
BRANCH  15  18
ATOM     18  C   UNL     1     -46.999  43.813  25.648  1.00  0.00    -0.060 C 
ATOM     19  H   UNL     1     -47.571  44.579  25.114  1.00  0.00     0.023 H 
ATOM     20  H   UNL     1     -46.280  43.376  24.948  1.00  0.00     0.023 H 
ATOM     21  H   UNL     1     -46.433  44.306  26.446  1.00  0.00     0.023 H 
ENDBRANCH  15  18
ENDBRANCH   1  15
BRANCH   3  22
ATOM     22  N   UNL     1     -43.737  40.344  27.301  1.00  0.00    -0.382 N 
ATOM     23  H   UNL     1     -43.302  39.925  26.475  1.00  0.00     0.160 HD
BRANCH  22  24
ATOM     24  C   UNL     1     -43.088  41.616  27.651  1.00  0.00     0.038 C 
ATOM     25  H   UNL     1     -43.344  41.845  28.693  1.00  0.00     0.051 H 
ATOM     26  H   UNL     1     -43.489  42.456  27.072  1.00  0.00     0.051 H 
BRANCH  24  27
ATOM     27  C   UNL     1     -41.560  41.559  27.523  1.00  0.00     0.063 C 
ATOM     28  H   UNL     1     -41.187  42.436  26.984  1.00  0.00     0.059 H 
ATOM     29  H   UNL     1     -41.265  40.659  26.971  1.00  0.00     0.059 H 
BRANCH  27  30
ATOM     30  O   UNL     1     -40.981  41.527  28.831  1.00  0.00    -0.383 OA
BRANCH  30  31
ATOM     31  C   UNL     1     -41.827  40.853  29.754  1.00  0.00     0.036 C 
ATOM     32  H   UNL     1     -42.372  41.571  30.371  1.00  0.00     0.053 H 
ATOM     33  H   UNL     1     -41.241  40.179  30.388  1.00  0.00     0.053 H 
ATOM     34  H   UNL     1     -42.550  40.259  29.188  1.00  0.00     0.053 H 
ENDBRANCH  30  31
ENDBRANCH  27  30
ENDBRANCH  24  27
ENDBRANCH  22  24
ENDBRANCH   3  22
BRANCH   8  35
ATOM     35  O   UNL     1     -48.436  35.936  28.220  1.00  0.00    -0.489 OA
BRANCH  35  36
ATOM     36  C   UNL     1     -48.987  35.391  27.010  1.00  0.00     0.115 C 
ATOM     37  H   UNL     1     -49.057  36.230  26.308  1.00  0.00     0.076 H 
ATOM     38  H   UNL     1     -50.013  35.051  27.197  1.00  0.00     0.076 H 
BRANCH  36  39
ATOM     39  C   UNL     1     -48.169  34.308  26.341  1.00  0.00     0.010 A 
ATOM     40  C   UNL     1     -46.852  34.560  25.984  1.00  0.00     0.034 A 
ATOM     41  C   UNL     1     -48.674  33.037  26.037  1.00  0.00    -0.028 A 
ATOM     42  N   UNL     1     -46.061  33.675  25.339  1.00  0.00    -0.262 NA
ATOM     43  H   UNL     1     -46.376  35.512  26.203  1.00  0.00     0.084 H 
ATOM     44  C   UNL     1     -47.914  32.119  25.301  1.00  0.00     0.066 A 
ATOM     45  H   UNL     1     -49.671  32.781  26.378  1.00  0.00     0.065 H 
ATOM     46  C   UNL     1     -46.608  32.479  25.000  1.00  0.00     0.051 A 
ATOM     47  H   UNL     1     -45.932  31.850  24.433  1.00  0.00     0.086 H 
BRANCH  44  48
ATOM     48  N   UNL     1     -48.505  30.909  24.821  1.00  0.00    -0.299 N 
ATOM     49  C   UNL     1     -48.650  29.758  25.576  1.00  0.00     0.021 A 
ATOM     50  C   UNL     1     -49.098  30.672  23.584  1.00  0.00     0.150 A 
ATOM     51  C   UNL     1     -49.373  28.826  24.863  1.00  0.00     0.033 A 
ATOM     52  H   UNL     1     -48.298  29.704  26.596  1.00  0.00     0.083 H 
ATOM     53  C   UNL     1     -49.626  29.379  23.577  1.00  0.00     0.071 A 
ATOM     54  N   UNL     1     -49.143  31.537  22.551  1.00  0.00    -0.218 NA
ATOM     55  C   UNL     1     -50.248  28.964  22.384  1.00  0.00     0.137 A 
ATOM     56  C   UNL     1     -49.775  31.035  21.482  1.00  0.00     0.120 A 
ATOM     57  N   UNL     1     -50.330  29.823  21.349  1.00  0.00    -0.219 NA
ATOM     58  H   UNL     1     -49.847  31.688  20.618  1.00  0.00     0.106 H 
BRANCH  51  59
ATOM     59  C   UNL     1     -49.821  27.524  25.373  1.00  0.00     0.095 A 
ATOM     60  C   UNL     1     -49.009  26.368  25.445  1.00  0.00    -0.016 A 
ATOM     61  N   UNL     1     -51.038  27.306  25.888  1.00  0.00    -0.173 NA
ATOM     62  C   UNL     1     -49.804  25.409  26.027  1.00  0.00     0.025 A 
ATOM     63  H   UNL     1     -47.984  26.245  25.122  1.00  0.00     0.066 H 
ATOM     64  N   UNL     1     -51.000  26.014  26.269  1.00  0.00    -0.275 N 
ATOM     65  H   UNL     1     -49.617  24.376  26.279  1.00  0.00     0.084 H 
BRANCH  64  66
ATOM     66  C   UNL     1     -52.164  25.420  26.881  1.00  0.00     0.030 C 
ATOM     67  H   UNL     1     -51.902  24.411  27.209  1.00  0.00     0.048 H 
ATOM     68  H   UNL     1     -52.977  25.378  26.152  1.00  0.00     0.048 H 
ATOM     69  H   UNL     1     -52.457  26.037  27.734  1.00  0.00     0.048 H 
ENDBRANCH  64  66
ENDBRANCH  51  59
BRANCH  55  70
ATOM     70  N   UNL     1     -50.793  27.706  22.188  1.00  0.00    -0.383 N 
ATOM     71  H   UNL     1     -51.009  27.510  21.206  1.00  0.00     0.158 HD
ATOM     72  H   UNL     1     -50.302  26.992  22.706  1.00  0.00     0.158 HD
ENDBRANCH  55  70
ENDBRANCH  44  48
ENDBRANCH  36  39
ENDBRANCH  35  36
ENDBRANCH   8  35
TORSDOF 14
ENDMDL
MODEL 4
REMARK VINA RESULT:      -8.3      2.440      3.613
REMARK SMILES CCc1cc(NCCOC)c2c(F)cc(OCc3cncc(-n4cc(-c5ccn(C)n5)c5c(N)ncnc54)c3)cc2n1
REMARK SMILES IDX 3 1 4 2 5 3 11 4 12 5 13 6 14 7 15 8 40 9 41 10 42 11 2 15
REMARK SMILES IDX 1 18 6 22 7 24 8 27 9 30 10 31 16 35 17 36 18 39 19 40 39 41
REMARK SMILES IDX 20 42 22 44 21 46 23 48 24 49 38 50 25 51 32 53 37 54 33 55
REMARK SMILES IDX 36 56 35 57 26 59 27 60 31 61 28 62 29 64 30 66 34 70
REMARK H PARENT 4 12 14 13 40 14 2 16 2 17 1 19 1 20 1 21 6 23 7 25 7 26 8 28
REMARK H PARENT 8 29 10 32 10 33 10 34 17 37 17 38 19 43 39 45 21 47 24 52
REMARK H PARENT 36 58 27 63 28 65 30 67 30 68 30 69 34 71 34 72
REMARK Flexibility Score: inf
ROOT
ATOM      1  C   UNL     1     -46.243  30.276  22.746  1.00  0.00     0.043 A 
ATOM      2  C   UNL     1     -47.504  29.820  22.389  1.00  0.00    -0.017 A 
ATOM      3  C   UNL     1     -48.630  30.292  23.067  1.00  0.00     0.048 A 
ATOM      4  C   UNL     1     -48.442  31.199  24.144  1.00  0.00     0.059 A 
ATOM      5  C   UNL     1     -49.480  31.750  24.929  1.00  0.00     0.138 A 
ATOM      6  F   UNL     1     -50.757  31.398  24.695  1.00  0.00    -0.206 F 
ATOM      7  C   UNL     1     -49.249  32.690  25.929  1.00  0.00     0.017 A 
ATOM      8  C   UNL     1     -47.952  33.113  26.161  1.00  0.00     0.124 A 
ATOM      9  C   UNL     1     -46.906  32.533  25.438  1.00  0.00     0.007 A 
ATOM     10  C   UNL     1     -47.124  31.603  24.431  1.00  0.00     0.079 A 
ATOM     11  N   UNL     1     -46.059  31.160  23.750  1.00  0.00    -0.252 NA
ATOM     12  H   UNL     1     -47.604  29.082  21.600  1.00  0.00     0.066 H 
ATOM     13  H   UNL     1     -50.101  33.083  26.469  1.00  0.00     0.069 H 
ATOM     14  H   UNL     1     -45.884  32.856  25.632  1.00  0.00     0.069 H 
ENDROOT
BRANCH   1  15
ATOM     15  C   UNL     1     -45.029  29.732  22.029  1.00  0.00    -0.013 C 
ATOM     16  H   UNL     1     -45.275  29.622  20.966  1.00  0.00     0.033 H 
ATOM     17  H   UNL     1     -44.215  30.464  22.107  1.00  0.00     0.033 H 
BRANCH  15  18
ATOM     18  C   UNL     1     -44.523  28.400  22.569  1.00  0.00    -0.060 C 
ATOM     19  H   UNL     1     -43.633  28.537  23.192  1.00  0.00     0.023 H 
ATOM     20  H   UNL     1     -44.259  27.735  21.741  1.00  0.00     0.023 H 
ATOM     21  H   UNL     1     -45.287  27.899  23.171  1.00  0.00     0.023 H 
ENDBRANCH  15  18
ENDBRANCH   1  15
BRANCH   3  22
ATOM     22  N   UNL     1     -49.915  29.842  22.696  1.00  0.00    -0.382 N 
ATOM     23  H   UNL     1     -50.471  29.578  23.513  1.00  0.00     0.160 HD
BRANCH  22  24
ATOM     24  C   UNL     1     -50.690  30.696  21.784  1.00  0.00     0.038 C 
ATOM     25  H   UNL     1     -50.247  31.699  21.808  1.00  0.00     0.051 H 
ATOM     26  H   UNL     1     -51.721  30.835  22.127  1.00  0.00     0.051 H 
BRANCH  24  27
ATOM     27  C   UNL     1     -50.672  30.188  20.335  1.00  0.00     0.063 C 
ATOM     28  H   UNL     1     -51.677  29.887  20.021  1.00  0.00     0.059 H 
ATOM     29  H   UNL     1     -50.007  29.320  20.253  1.00  0.00     0.059 H 
BRANCH  27  30
ATOM     30  O   UNL     1     -50.202  31.232  19.478  1.00  0.00    -0.383 OA
BRANCH  30  31
ATOM     31  C   UNL     1     -48.780  31.299  19.477  1.00  0.00     0.036 C 
ATOM     32  H   UNL     1     -48.443  32.293  19.776  1.00  0.00     0.053 H 
ATOM     33  H   UNL     1     -48.387  31.049  18.486  1.00  0.00     0.053 H 
ATOM     34  H   UNL     1     -48.402  30.569  20.197  1.00  0.00     0.053 H 
ENDBRANCH  30  31
ENDBRANCH  27  30
ENDBRANCH  24  27
ENDBRANCH  22  24
ENDBRANCH   3  22
BRANCH   8  35
ATOM     35  O   UNL     1     -47.574  34.126  27.000  1.00  0.00    -0.489 OA
BRANCH  35  36
ATOM     36  C   UNL     1     -47.790  35.484  26.583  1.00  0.00     0.115 C 
ATOM     37  H   UNL     1     -48.830  35.715  26.842  1.00  0.00     0.076 H 
ATOM     38  H   UNL     1     -47.716  35.547  25.491  1.00  0.00     0.076 H 
BRANCH  36  39
ATOM     39  C   UNL     1     -46.916  36.525  27.248  1.00  0.00     0.010 A 
ATOM     40  C   UNL     1     -46.367  36.270  28.496  1.00  0.00     0.034 A 
ATOM     41  C   UNL     1     -46.629  37.771  26.675  1.00  0.00    -0.028 A 
ATOM     42  N   UNL     1     -45.618  37.155  29.189  1.00  0.00    -0.262 NA
ATOM     43  H   UNL     1     -46.522  35.319  29.002  1.00  0.00     0.084 H 
ATOM     44  C   UNL     1     -45.924  38.746  27.391  1.00  0.00     0.066 A 
ATOM     45  H   UNL     1     -46.974  37.968  25.666  1.00  0.00     0.065 H 
ATOM     46  C   UNL     1     -45.420  38.377  28.630  1.00  0.00     0.051 A 
ATOM     47  H   UNL     1     -44.864  39.050  29.272  1.00  0.00     0.086 H 
BRANCH  44  48
ATOM     48  N   UNL     1     -45.812  40.078  26.885  1.00  0.00    -0.299 N 
ATOM     49  C   UNL     1     -44.645  40.625  26.378  1.00  0.00     0.021 A 
ATOM     50  C   UNL     1     -46.817  41.028  26.730  1.00  0.00     0.150 A 
ATOM     51  C   UNL     1     -44.909  41.873  25.855  1.00  0.00     0.033 A 
ATOM     52  H   UNL     1     -43.723  40.063  26.352  1.00  0.00     0.083 H 
ATOM     53  C   UNL     1     -46.279  42.159  26.112  1.00  0.00     0.071 A 
ATOM     54  N   UNL     1     -48.099  40.894  27.127  1.00  0.00    -0.218 NA
ATOM     55  C   UNL     1     -47.161  43.235  25.898  1.00  0.00     0.137 A 
ATOM     56  C   UNL     1     -48.842  41.973  26.852  1.00  0.00     0.120 A 
ATOM     57  N   UNL     1     -48.453  43.111  26.260  1.00  0.00    -0.219 NA
ATOM     58  H   UNL     1     -49.886  41.923  27.144  1.00  0.00     0.106 H 
BRANCH  51  59
ATOM     59  C   UNL     1     -43.947  42.714  25.134  1.00  0.00     0.095 A 
ATOM     60  C   UNL     1     -42.665  43.063  25.620  1.00  0.00    -0.016 A 
ATOM     61  N   UNL     1     -44.156  43.196  23.902  1.00  0.00    -0.173 NA
ATOM     62  C   UNL     1     -42.092  43.805  24.614  1.00  0.00     0.025 A 
ATOM     63  H   UNL     1     -42.212  42.809  26.569  1.00  0.00     0.066 H 
ATOM     64  N   UNL     1     -43.017  43.858  23.616  1.00  0.00    -0.275 N 
ATOM     65  H   UNL     1     -41.127  44.284  24.533  1.00  0.00     0.084 H 
BRANCH  64  66
ATOM     66  C   UNL     1     -42.881  44.518  22.340  1.00  0.00     0.030 C 
ATOM     67  H   UNL     1     -42.170  43.950  21.734  1.00  0.00     0.048 H 
ATOM     68  H   UNL     1     -42.512  45.535  22.494  1.00  0.00     0.048 H 
ATOM     69  H   UNL     1     -43.862  44.544  21.860  1.00  0.00     0.048 H 
ENDBRANCH  64  66
ENDBRANCH  51  59
BRANCH  55  70
ATOM     70  N   UNL     1     -46.791  44.444  25.333  1.00  0.00    -0.383 N 
ATOM     71  H   UNL     1     -47.583  45.074  25.178  1.00  0.00     0.158 HD
ATOM     72  H   UNL     1     -45.967  44.833  25.768  1.00  0.00     0.158 HD
ENDBRANCH  55  70
ENDBRANCH  44  48
ENDBRANCH  36  39
ENDBRANCH  35  36
ENDBRANCH   8  35
TORSDOF 14
ENDMDL
MODEL 5
REMARK VINA RESULT:      -8.3      1.849      3.128
REMARK SMILES CCc1cc(NCCOC)c2c(F)cc(OCc3cncc(-n4cc(-c5ccn(C)n5)c5c(N)ncnc54)c3)cc2n1
REMARK SMILES IDX 3 1 4 2 5 3 11 4 12 5 13 6 14 7 15 8 40 9 41 10 42 11 2 15
REMARK SMILES IDX 1 18 6 22 7 24 8 27 9 30 10 31 16 35 17 36 18 39 19 40 39 41
REMARK SMILES IDX 20 42 22 44 21 46 23 48 24 49 38 50 25 51 32 53 37 54 33 55
REMARK SMILES IDX 36 56 35 57 26 59 27 60 31 61 28 62 29 64 30 66 34 70
REMARK H PARENT 4 12 14 13 40 14 2 16 2 17 1 19 1 20 1 21 6 23 7 25 7 26 8 28
REMARK H PARENT 8 29 10 32 10 33 10 34 17 37 17 38 19 43 39 45 21 47 24 52
REMARK H PARENT 36 58 27 63 28 65 30 67 30 68 30 69 34 71 34 72
REMARK Flexibility Score: inf
ROOT
ATOM      1  C   UNL     1     -50.049  29.189  22.505  1.00  0.00     0.043 A 
ATOM      2  C   UNL     1     -49.998  28.175  23.451  1.00  0.00    -0.017 A 
ATOM      3  C   UNL     1     -49.479  28.437  24.721  1.00  0.00     0.048 A 
ATOM      4  C   UNL     1     -48.972  29.736  24.992  1.00  0.00     0.059 A 
ATOM      5  C   UNL     1     -48.406  30.144  26.221  1.00  0.00     0.138 A 
ATOM      6  F   UNL     1     -48.293  29.266  27.233  1.00  0.00    -0.206 F 
ATOM      7  C   UNL     1     -47.986  31.451  26.459  1.00  0.00     0.017 A 
ATOM      8  C   UNL     1     -48.136  32.393  25.456  1.00  0.00     0.124 A 
ATOM      9  C   UNL     1     -48.634  31.993  24.213  1.00  0.00     0.007 A 
ATOM     10  C   UNL     1     -49.066  30.697  23.967  1.00  0.00     0.079 A 
ATOM     11  N   UNL     1     -49.593  30.434  22.764  1.00  0.00    -0.252 NA
ATOM     12  H   UNL     1     -50.341  27.180  23.190  1.00  0.00     0.066 H 
ATOM     13  H   UNL     1     -47.586  31.690  27.436  1.00  0.00     0.069 H 
ATOM     14  H   UNL     1     -48.737  32.733  23.421  1.00  0.00     0.069 H 
ENDROOT
BRANCH   1  15
ATOM     15  C   UNL     1     -50.579  28.886  21.123  1.00  0.00    -0.013 C 
ATOM     16  H   UNL     1     -50.370  27.834  20.895  1.00  0.00     0.033 H 
ATOM     17  H   UNL     1     -51.668  29.014  21.126  1.00  0.00     0.033 H 
BRANCH  15  18
ATOM     18  C   UNL     1     -50.000  29.763  20.020  1.00  0.00    -0.060 C 
ATOM     19  H   UNL     1     -50.789  30.159  19.372  1.00  0.00     0.023 H 
ATOM     20  H   UNL     1     -49.310  29.182  19.400  1.00  0.00     0.023 H 
ATOM     21  H   UNL     1     -49.444  30.610  20.435  1.00  0.00     0.023 H 
ENDBRANCH  15  18
ENDBRANCH   1  15
BRANCH   3  22
ATOM     22  N   UNL     1     -49.442  27.413  25.691  1.00  0.00    -0.382 N 
ATOM     23  H   UNL     1     -50.382  27.110  25.954  1.00  0.00     0.160 HD
BRANCH  22  24
ATOM     24  C   UNL     1     -48.571  26.259  25.418  1.00  0.00     0.038 C 
ATOM     25  H   UNL     1     -48.725  25.965  24.373  1.00  0.00     0.051 H 
ATOM     26  H   UNL     1     -48.860  25.379  26.004  1.00  0.00     0.051 H 
BRANCH  24  27
ATOM     27  C   UNL     1     -47.083  26.575  25.624  1.00  0.00     0.063 C 
ATOM     28  H   UNL     1     -46.956  27.596  26.001  1.00  0.00     0.059 H 
ATOM     29  H   UNL     1     -46.548  26.487  24.671  1.00  0.00     0.059 H 
BRANCH  27  30
ATOM     30  O   UNL     1     -46.534  25.652  26.568  1.00  0.00    -0.383 OA
BRANCH  30  31
ATOM     31  C   UNL     1     -47.382  24.522  26.739  1.00  0.00     0.036 C 
ATOM     32  H   UNL     1     -46.790  23.615  26.878  1.00  0.00     0.053 H 
ATOM     33  H   UNL     1     -48.047  24.410  25.876  1.00  0.00     0.053 H 
ATOM     34  H   UNL     1     -47.992  24.682  27.632  1.00  0.00     0.053 H 
ENDBRANCH  30  31
ENDBRANCH  27  30
ENDBRANCH  24  27
ENDBRANCH  22  24
ENDBRANCH   3  22
BRANCH   8  35
ATOM     35  O   UNL     1     -47.908  33.737  25.576  1.00  0.00    -0.489 OA
BRANCH  35  36
ATOM     36  C   UNL     1     -47.033  34.199  26.617  1.00  0.00     0.115 C 
ATOM     37  H   UNL     1     -46.026  34.200  26.183  1.00  0.00     0.076 H 
ATOM     38  H   UNL     1     -47.021  33.469  27.436  1.00  0.00     0.076 H 
BRANCH  36  39
ATOM     39  C   UNL     1     -47.303  35.594  27.136  1.00  0.00     0.010 A 
ATOM     40  C   UNL     1     -48.586  35.946  27.532  1.00  0.00     0.034 A 
ATOM     41  C   UNL     1     -46.318  36.585  27.234  1.00  0.00    -0.028 A 
ATOM     42  N   UNL     1     -48.933  37.179  27.960  1.00  0.00    -0.262 NA
ATOM     43  H   UNL     1     -49.404  35.230  27.509  1.00  0.00     0.084 H 
ATOM     44  C   UNL     1     -46.650  37.896  27.598  1.00  0.00     0.066 A 
ATOM     45  H   UNL     1     -45.290  36.317  27.012  1.00  0.00     0.065 H 
ATOM     46  C   UNL     1     -47.965  38.132  27.975  1.00  0.00     0.051 A 
ATOM     47  H   UNL     1     -48.335  39.106  28.271  1.00  0.00     0.086 H 
BRANCH  44  48
ATOM     48  N   UNL     1     -45.683  38.943  27.498  1.00  0.00    -0.299 N 
ATOM     49  C   UNL     1     -45.647  39.878  26.477  1.00  0.00     0.021 A 
ATOM     50  C   UNL     1     -44.675  39.274  28.399  1.00  0.00     0.150 A 
ATOM     51  C   UNL     1     -44.680  40.822  26.748  1.00  0.00     0.033 A 
ATOM     52  H   UNL     1     -46.360  39.856  25.666  1.00  0.00     0.083 H 
ATOM     53  C   UNL     1     -44.024  40.424  27.947  1.00  0.00     0.071 A 
ATOM     54  N   UNL     1     -44.361  38.591  29.518  1.00  0.00    -0.218 NA
ATOM     55  C   UNL     1     -42.954  40.888  28.736  1.00  0.00     0.137 A 
ATOM     56  C   UNL     1     -43.342  39.139  30.191  1.00  0.00     0.120 A 
ATOM     57  N   UNL     1     -42.642  40.237  29.873  1.00  0.00    -0.219 NA
ATOM     58  H   UNL     1     -43.044  38.636  31.105  1.00  0.00     0.106 H 
BRANCH  51  59
ATOM     59  C   UNL     1     -44.420  42.027  25.953  1.00  0.00     0.095 A 
ATOM     60  C   UNL     1     -44.266  42.043  24.547  1.00  0.00    -0.016 A 
ATOM     61  N   UNL     1     -44.362  43.262  26.470  1.00  0.00    -0.173 NA
ATOM     62  C   UNL     1     -44.095  43.368  24.222  1.00  0.00     0.025 A 
ATOM     63  H   UNL     1     -44.280  41.208  23.859  1.00  0.00     0.066 H 
ATOM     64  N   UNL     1     -44.158  44.052  25.398  1.00  0.00    -0.275 N 
ATOM     65  H   UNL     1     -43.940  43.862  23.273  1.00  0.00     0.084 H 
BRANCH  64  66
ATOM     66  C   UNL     1     -44.043  45.479  25.579  1.00  0.00     0.030 C 
ATOM     67  H   UNL     1     -42.982  45.742  25.566  1.00  0.00     0.048 H 
ATOM     68  H   UNL     1     -44.487  45.762  26.536  1.00  0.00     0.048 H 
ATOM     69  H   UNL     1     -44.572  45.973  24.760  1.00  0.00     0.048 H 
ENDBRANCH  64  66
ENDBRANCH  51  59
BRANCH  55  70
ATOM     70  N   UNL     1     -42.177  41.990  28.420  1.00  0.00    -0.383 N 
ATOM     71  H   UNL     1     -42.532  42.516  27.617  1.00  0.00     0.158 HD
ATOM     72  H   UNL     1     -41.912  42.518  29.239  1.00  0.00     0.158 HD
ENDBRANCH  55  70
ENDBRANCH  44  48
ENDBRANCH  36  39
ENDBRANCH  35  36
ENDBRANCH   8  35
TORSDOF 14
ENDMDL
MODEL 6
REMARK VINA RESULT:      -8.1      3.400     12.748
REMARK SMILES CCc1cc(NCCOC)c2c(F)cc(OCc3cncc(-n4cc(-c5ccn(C)n5)c5c(N)ncnc54)c3)cc2n1
REMARK SMILES IDX 3 1 4 2 5 3 11 4 12 5 13 6 14 7 15 8 40 9 41 10 42 11 2 15
REMARK SMILES IDX 1 18 6 22 7 24 8 27 9 30 10 31 16 35 17 36 18 39 19 40 39 41
REMARK SMILES IDX 20 42 22 44 21 46 23 48 24 49 38 50 25 51 32 53 37 54 33 55
REMARK SMILES IDX 36 56 35 57 26 59 27 60 31 61 28 62 29 64 30 66 34 70
REMARK H PARENT 4 12 14 13 40 14 2 16 2 17 1 19 1 20 1 21 6 23 7 25 7 26 8 28
REMARK H PARENT 8 29 10 32 10 33 10 34 17 37 17 38 19 43 39 45 21 47 24 52
REMARK H PARENT 36 58 27 63 28 65 30 67 30 68 30 69 34 71 34 72
REMARK Flexibility Score: inf
ROOT
ATOM      1  C   UNL     1     -43.042  41.527  27.778  1.00  0.00     0.043 A 
ATOM      2  C   UNL     1     -43.869  42.373  27.053  1.00  0.00    -0.017 A 
ATOM      3  C   UNL     1     -45.120  41.920  26.625  1.00  0.00     0.048 A 
ATOM      4  C   UNL     1     -45.489  40.578  26.910  1.00  0.00     0.059 A 
ATOM      5  C   UNL     1     -46.711  39.977  26.531  1.00  0.00     0.138 A 
ATOM      6  F   UNL     1     -47.613  40.679  25.823  1.00  0.00    -0.206 F 
ATOM      7  C   UNL     1     -47.055  38.678  26.896  1.00  0.00     0.017 A 
ATOM      8  C   UNL     1     -46.171  37.945  27.669  1.00  0.00     0.124 A 
ATOM      9  C   UNL     1     -44.932  38.500  27.999  1.00  0.00     0.007 A 
ATOM     10  C   UNL     1     -44.582  39.797  27.651  1.00  0.00     0.079 A 
ATOM     11  N   UNL     1     -43.398  40.259  28.077  1.00  0.00    -0.252 NA
ATOM     12  H   UNL     1     -43.530  43.372  26.803  1.00  0.00     0.066 H 
ATOM     13  H   UNL     1     -48.021  38.299  26.588  1.00  0.00     0.069 H 
ATOM     14  H   UNL     1     -44.231  37.917  28.595  1.00  0.00     0.069 H 
ENDROOT
BRANCH   1  15
ATOM     15  C   UNL     1     -41.677  42.015  28.205  1.00  0.00    -0.013 C 
ATOM     16  H   UNL     1     -40.959  41.772  27.413  1.00  0.00     0.033 H 
ATOM     17  H   UNL     1     -41.706  43.106  28.303  1.00  0.00     0.033 H 
BRANCH  15  18
ATOM     18  C   UNL     1     -41.185  41.432  29.524  1.00  0.00    -0.060 C 
ATOM     19  H   UNL     1     -42.017  41.045  30.122  1.00  0.00     0.023 H 
ATOM     20  H   UNL     1     -40.677  42.205  30.110  1.00  0.00     0.023 H 
ATOM     21  H   UNL     1     -40.475  40.616  29.359  1.00  0.00     0.023 H 
ENDBRANCH  15  18
ENDBRANCH   1  15
BRANCH   3  22
ATOM     22  N   UNL     1     -45.970  42.782  25.901  1.00  0.00    -0.382 N 
ATOM     23  H   UNL     1     -46.914  42.396  25.818  1.00  0.00     0.160 HD
BRANCH  22  24
ATOM     24  C   UNL     1     -46.012  44.192  26.316  1.00  0.00     0.038 C 
ATOM     25  H   UNL     1     -45.044  44.434  26.772  1.00  0.00     0.051 H 
ATOM     26  H   UNL     1     -46.748  44.366  27.109  1.00  0.00     0.051 H 
BRANCH  24  27
ATOM     27  C   UNL     1     -46.253  45.151  25.142  1.00  0.00     0.063 C 
ATOM     28  H   UNL     1     -45.470  45.916  25.104  1.00  0.00     0.059 H 
ATOM     29  H   UNL     1     -47.222  45.650  25.261  1.00  0.00     0.059 H 
BRANCH  27  30
ATOM     30  O   UNL     1     -46.246  44.407  23.920  1.00  0.00    -0.383 OA
BRANCH  30  31
ATOM     31  C   UNL     1     -45.410  45.021  22.946  1.00  0.00     0.036 C 
ATOM     32  H   UNL     1     -45.932  45.847  22.458  1.00  0.00     0.053 H 
ATOM     33  H   UNL     1     -45.087  44.286  22.202  1.00  0.00     0.053 H 
ATOM     34  H   UNL     1     -44.526  45.417  23.453  1.00  0.00     0.053 H 
ENDBRANCH  30  31
ENDBRANCH  27  30
ENDBRANCH  24  27
ENDBRANCH  22  24
ENDBRANCH   3  22
BRANCH   8  35
ATOM     35  O   UNL     1     -46.416  36.720  28.227  1.00  0.00    -0.489 OA
BRANCH  35  36
ATOM     36  C   UNL     1     -46.095  35.541  27.471  1.00  0.00     0.115 C 
ATOM     37  H   UNL     1     -45.551  34.883  28.159  1.00  0.00     0.076 H 
ATOM     38  H   UNL     1     -45.395  35.802  26.667  1.00  0.00     0.076 H 
BRANCH  36  39
ATOM     39  C   UNL     1     -47.273  34.760  26.933  1.00  0.00     0.010 A 
ATOM     40  C   UNL     1     -48.558  35.263  27.078  1.00  0.00     0.034 A 
ATOM     41  C   UNL     1     -47.150  33.520  26.293  1.00  0.00    -0.028 A 
ATOM     42  N   UNL     1     -49.674  34.616  26.677  1.00  0.00    -0.262 NA
ATOM     43  H   UNL     1     -48.741  36.229  27.544  1.00  0.00     0.084 H 
ATOM     44  C   UNL     1     -48.283  32.781  25.932  1.00  0.00     0.066 A 
ATOM     45  H   UNL     1     -46.154  33.139  26.090  1.00  0.00     0.065 H 
ATOM     46  C   UNL     1     -49.517  33.386  26.123  1.00  0.00     0.051 A 
ATOM     47  H   UNL     1     -50.460  32.907  25.885  1.00  0.00     0.086 H 
BRANCH  44  48
ATOM     48  N   UNL     1     -48.154  31.435  25.469  1.00  0.00    -0.299 N 
ATOM     49  C   UNL     1     -48.649  30.328  26.137  1.00  0.00     0.021 A 
ATOM     50  C   UNL     1     -47.600  30.985  24.274  1.00  0.00     0.150 A 
ATOM     51  C   UNL     1     -48.473  29.203  25.360  1.00  0.00     0.033 A 
ATOM     52  H   UNL     1     -49.162  30.422  27.082  1.00  0.00     0.083 H 
ATOM     53  C   UNL     1     -47.767  29.601  24.191  1.00  0.00     0.071 A 
ATOM     54  N   UNL     1     -46.986  31.752  23.350  1.00  0.00    -0.218 NA
ATOM     55  C   UNL     1     -47.241  28.975  23.045  1.00  0.00     0.137 A 
ATOM     56  C   UNL     1     -46.546  31.046  22.301  1.00  0.00     0.120 A 
ATOM     57  N   UNL     1     -46.649  29.725  22.096  1.00  0.00    -0.219 NA
ATOM     58  H   UNL     1     -46.045  31.609  21.519  1.00  0.00     0.106 H 
BRANCH  51  59
ATOM     59  C   UNL     1     -48.967  27.859  25.684  1.00  0.00     0.095 A 
ATOM     60  C   UNL     1     -48.141  26.735  25.915  1.00  0.00    -0.016 A 
ATOM     61  N   UNL     1     -50.262  27.565  25.859  1.00  0.00    -0.173 NA
ATOM     62  C   UNL     1     -49.007  25.715  26.233  1.00  0.00     0.025 A 
ATOM     63  H   UNL     1     -47.062  26.670  25.862  1.00  0.00     0.066 H 
ATOM     64  N   UNL     1     -50.256  26.258  26.184  1.00  0.00    -0.275 N 
ATOM     65  H   UNL     1     -48.837  24.678  26.482  1.00  0.00     0.084 H 
BRANCH  64  66
ATOM     66  C   UNL     1     -51.504  25.585  26.451  1.00  0.00     0.030 C 
ATOM     67  H   UNL     1     -52.303  26.330  26.444  1.00  0.00     0.048 H 
ATOM     68  H   UNL     1     -51.454  25.099  27.429  1.00  0.00     0.048 H 
ATOM     69  H   UNL     1     -51.667  24.839  25.670  1.00  0.00     0.048 H 
ENDBRANCH  64  66
ENDBRANCH  51  59
BRANCH  55  70
ATOM     70  N   UNL     1     -47.285  27.609  22.816  1.00  0.00    -0.383 N 
ATOM     71  H   UNL     1     -47.743  27.090  23.570  1.00  0.00     0.158 HD
ATOM     72  H   UNL     1     -47.558  27.389  21.869  1.00  0.00     0.158 HD
ENDBRANCH  55  70
ENDBRANCH  44  48
ENDBRANCH  36  39
ENDBRANCH  35  36
ENDBRANCH   8  35
TORSDOF 14
ENDMDL
MODEL 7
REMARK VINA RESULT:      -8.0      3.084      4.686
REMARK SMILES CCc1cc(NCCOC)c2c(F)cc(OCc3cncc(-n4cc(-c5ccn(C)n5)c5c(N)ncnc54)c3)cc2n1
REMARK SMILES IDX 3 1 4 2 5 3 11 4 12 5 13 6 14 7 15 8 40 9 41 10 42 11 2 15
REMARK SMILES IDX 1 18 6 22 7 24 8 27 9 30 10 31 16 35 17 36 18 39 19 40 39 41
REMARK SMILES IDX 20 42 22 44 21 46 23 48 24 49 38 50 25 51 32 53 37 54 33 55
REMARK SMILES IDX 36 56 35 57 26 59 27 60 31 61 28 62 29 64 30 66 34 70
REMARK H PARENT 4 12 14 13 40 14 2 16 2 17 1 19 1 20 1 21 6 23 7 25 7 26 8 28
REMARK H PARENT 8 29 10 32 10 33 10 34 17 37 17 38 19 43 39 45 21 47 24 52
REMARK H PARENT 36 58 27 63 28 65 30 67 30 68 30 69 34 71 34 72
REMARK Flexibility Score: inf
ROOT
ATOM      1  C   UNL     1     -46.663  30.893  21.643  1.00  0.00     0.043 A 
ATOM      2  C   UNL     1     -47.646  30.000  22.045  1.00  0.00    -0.017 A 
ATOM      3  C   UNL     1     -48.148  30.060  23.347  1.00  0.00     0.048 A 
ATOM      4  C   UNL     1     -47.597  31.016  24.242  1.00  0.00     0.059 A 
ATOM      5  C   UNL     1     -47.992  31.185  25.588  1.00  0.00     0.138 A 
ATOM      6  F   UNL     1     -48.938  30.389  26.116  1.00  0.00    -0.206 F 
ATOM      7  C   UNL     1     -47.469  32.185  26.406  1.00  0.00     0.017 A 
ATOM      8  C   UNL     1     -46.531  33.055  25.879  1.00  0.00     0.124 A 
ATOM      9  C   UNL     1     -46.082  32.863  24.569  1.00  0.00     0.007 A 
ATOM     10  C   UNL     1     -46.603  31.878  23.742  1.00  0.00     0.079 A 
ATOM     11  N   UNL     1     -46.154  31.823  22.480  1.00  0.00    -0.252 NA
ATOM     12  H   UNL     1     -48.001  29.245  21.351  1.00  0.00     0.066 H 
ATOM     13  H   UNL     1     -47.843  32.265  27.419  1.00  0.00     0.069 H 
ATOM     14  H   UNL     1     -45.333  33.540  24.161  1.00  0.00     0.069 H 
ENDROOT
BRANCH   1  15
ATOM     15  C   UNL     1     -46.102  30.796  20.244  1.00  0.00    -0.013 C 
ATOM     16  H   UNL     1     -45.091  30.375  20.304  1.00  0.00     0.033 H 
ATOM     17  H   UNL     1     -46.716  30.098  19.663  1.00  0.00     0.033 H 
BRANCH  15  18
ATOM     18  C   UNL     1     -46.050  32.120  19.493  1.00  0.00    -0.060 C 
ATOM     19  H   UNL     1     -46.936  32.730  19.702  1.00  0.00     0.023 H 
ATOM     20  H   UNL     1     -46.009  31.940  18.414  1.00  0.00     0.023 H 
ATOM     21  H   UNL     1     -45.164  32.701  19.770  1.00  0.00     0.023 H 
ENDBRANCH  15  18
ENDBRANCH   1  15
BRANCH   3  22
ATOM     22  N   UNL     1     -49.158  29.164  23.754  1.00  0.00    -0.382 N 
ATOM     23  H   UNL     1     -50.081  29.603  23.732  1.00  0.00     0.160 HD
BRANCH  22  24
ATOM     24  C   UNL     1     -49.186  27.842  23.109  1.00  0.00     0.038 C 
ATOM     25  H   UNL     1     -48.174  27.425  23.159  1.00  0.00     0.051 H 
ATOM     26  H   UNL     1     -49.408  27.912  22.038  1.00  0.00     0.051 H 
BRANCH  24  27
ATOM     27  C   UNL     1     -50.154  26.867  23.794  1.00  0.00     0.063 C 
ATOM     28  H   UNL     1     -49.702  25.872  23.874  1.00  0.00     0.059 H 
ATOM     29  H   UNL     1     -51.077  26.784  23.208  1.00  0.00     0.059 H 
BRANCH  27  30
ATOM     30  O   UNL     1     -50.461  27.353  25.103  1.00  0.00    -0.383 OA
BRANCH  30  31
ATOM     31  C   UNL     1     -49.812  26.580  26.107  1.00  0.00     0.036 C 
ATOM     32  H   UNL     1     -48.728  26.644  26.000  1.00  0.00     0.053 H 
ATOM     33  H   UNL     1     -50.136  25.535  26.052  1.00  0.00     0.053 H 
ATOM     34  H   UNL     1     -50.093  26.982  27.084  1.00  0.00     0.053 H 
ENDBRANCH  30  31
ENDBRANCH  27  30
ENDBRANCH  24  27
ENDBRANCH  22  24
ENDBRANCH   3  22
BRANCH   8  35
ATOM     35  O   UNL     1     -46.030  34.168  26.498  1.00  0.00    -0.489 OA
BRANCH  35  36
ATOM     36  C   UNL     1     -46.949  35.103  27.085  1.00  0.00     0.115 C 
ATOM     37  H   UNL     1     -47.379  34.594  27.956  1.00  0.00     0.076 H 
ATOM     38  H   UNL     1     -47.776  35.290  26.390  1.00  0.00     0.076 H 
BRANCH  36  39
ATOM     39  C   UNL     1     -46.347  36.402  27.573  1.00  0.00     0.010 A 
ATOM     40  C   UNL     1     -45.475  36.396  28.653  1.00  0.00     0.034 A 
ATOM     41  C   UNL     1     -46.631  37.648  26.999  1.00  0.00    -0.028 A 
ATOM     42  N   UNL     1     -44.928  37.509  29.190  1.00  0.00    -0.262 NA
ATOM     43  H   UNL     1     -45.184  35.470  29.143  1.00  0.00     0.084 H 
ATOM     44  C   UNL     1     -46.148  38.831  27.572  1.00  0.00     0.066 A 
ATOM     45  H   UNL     1     -47.242  37.678  26.103  1.00  0.00     0.065 H 
ATOM     46  C   UNL     1     -45.283  38.703  28.649  1.00  0.00     0.051 A 
ATOM     47  H   UNL     1     -44.852  39.548  29.173  1.00  0.00     0.086 H 
BRANCH  44  48
ATOM     48  N   UNL     1     -46.606  40.102  27.105  1.00  0.00    -0.299 N 
ATOM     49  C   UNL     1     -47.858  40.627  27.374  1.00  0.00     0.021 A 
ATOM     50  C   UNL     1     -45.899  41.062  26.387  1.00  0.00     0.150 A 
ATOM     51  C   UNL     1     -47.931  41.917  26.892  1.00  0.00     0.033 A 
ATOM     52  H   UNL     1     -48.587  40.082  27.955  1.00  0.00     0.083 H 
ATOM     53  C   UNL     1     -46.705  42.190  26.223  1.00  0.00     0.071 A 
ATOM     54  N   UNL     1     -44.646  40.925  25.907  1.00  0.00    -0.218 NA
ATOM     55  C   UNL     1     -46.148  43.257  25.494  1.00  0.00     0.137 A 
ATOM     56  C   UNL     1     -44.221  42.011  25.249  1.00  0.00     0.120 A 
ATOM     57  N   UNL     1     -44.888  43.153  25.031  1.00  0.00    -0.219 NA
ATOM     58  H   UNL     1     -43.216  41.963  24.843  1.00  0.00     0.106 H 
BRANCH  51  59
ATOM     59  C   UNL     1     -49.061  42.835  27.083  1.00  0.00     0.095 A 
ATOM     60  C   UNL     1     -50.150  42.962  26.189  1.00  0.00    -0.016 A 
ATOM     61  N   UNL     1     -49.216  43.610  28.164  1.00  0.00    -0.173 NA
ATOM     62  C   UNL     1     -50.989  43.880  26.778  1.00  0.00     0.025 A 
ATOM     63  H   UNL     1     -50.310  42.456  25.246  1.00  0.00     0.066 H 
ATOM     64  N   UNL     1     -50.389  44.237  27.947  1.00  0.00    -0.275 N 
ATOM     65  H   UNL     1     -51.937  44.293  26.464  1.00  0.00     0.084 H 
BRANCH  64  66
ATOM     66  C   UNL     1     -50.887  45.171  28.927  1.00  0.00     0.030 C 
ATOM     67  H   UNL     1     -51.196  44.609  29.812  1.00  0.00     0.048 H 
ATOM     68  H   UNL     1     -51.740  45.714  28.512  1.00  0.00     0.048 H 
ATOM     69  H   UNL     1     -50.084  45.869  29.176  1.00  0.00     0.048 H 
ENDBRANCH  64  66
ENDBRANCH  51  59
BRANCH  55  70
ATOM     70  N   UNL     1     -46.818  44.435  25.206  1.00  0.00    -0.383 N 
ATOM     71  H   UNL     1     -46.644  44.774  24.255  1.00  0.00     0.158 HD
ATOM     72  H   UNL     1     -47.775  44.418  25.524  1.00  0.00     0.158 HD
ENDBRANCH  55  70
ENDBRANCH  44  48
ENDBRANCH  36  39
ENDBRANCH  35  36
ENDBRANCH   8  35
TORSDOF 14
ENDMDL
