MODEL 1
REMARK VINA RESULT:     -10.6      0.000      0.000
REMARK SMILES CNc1ccc2cc(CCc3cccc(-n4cc(Cl)c5c(N)ncnc54)c3)ccc2n1
REMARK SMILES IDX 9 1 8 4 3 5 4 6 31 7 5 8 30 10 6 11 29 13 7 14 28 15 2 19
REMARK SMILES IDX 1 21 10 25 11 28 12 29 27 30 13 31 15 33 14 35 16 38 17 39
REMARK SMILES IDX 26 40 18 41 20 43 25 44 19 45 21 46 24 47 23 48 22 50
REMARK H PARENT 9 2 9 3 4 9 5 12 29 16 7 17 28 18 2 20 1 22 1 23 1 24 10 26
REMARK H PARENT 10 27 12 32 27 34 13 36 14 37 17 42 24 49 22 51 22 52
REMARK Flexibility Score: inf
ROOT
ATOM      1  C   UNL     1     -48.888  35.502  27.385  1.00  0.00    -0.024 C 
ATOM      2  H   UNL     1     -48.793  35.162  28.425  1.00  0.00     0.032 H 
ATOM      3  H   UNL     1     -49.966  35.541  27.180  1.00  0.00     0.032 H 
ENDROOT
BRANCH   1   4
ATOM      4  C   UNL     1     -48.263  34.486  26.456  1.00  0.00    -0.047 A 
ATOM      5  C   UNL     1     -46.954  30.362  23.950  1.00  0.00     0.126 A 
ATOM      6  C   UNL     1     -48.228  30.084  24.434  1.00  0.00    -0.019 A 
ATOM      7  N   UNL     1     -46.351  31.544  24.185  1.00  0.00    -0.231 NA
ATOM      8  C   UNL     1     -48.906  31.051  25.168  1.00  0.00    -0.049 A 
ATOM      9  H   UNL     1     -48.684  29.116  24.257  1.00  0.00     0.066 H 
ATOM     10  C   UNL     1     -47.000  32.482  24.898  1.00  0.00     0.073 A 
ATOM     11  C   UNL     1     -48.292  32.280  25.415  1.00  0.00     0.001 A 
ATOM     12  H   UNL     1     -49.897  30.832  25.554  1.00  0.00     0.063 H 
ATOM     13  C   UNL     1     -46.377  33.695  25.156  1.00  0.00    -0.035 A 
ATOM     14  C   UNL     1     -48.920  33.281  26.177  1.00  0.00    -0.050 A 
ATOM     15  C   UNL     1     -46.987  34.691  25.928  1.00  0.00    -0.057 A 
ATOM     16  H   UNL     1     -45.377  33.863  24.761  1.00  0.00     0.065 H 
ATOM     17  H   UNL     1     -49.910  33.101  26.594  1.00  0.00     0.063 H 
ATOM     18  H   UNL     1     -46.446  35.614  26.125  1.00  0.00     0.063 H 
BRANCH   5  19
ATOM     19  N   UNL     1     -46.287  29.346  23.240  1.00  0.00    -0.373 N 
ATOM     20  H   UNL     1     -45.287  29.520  23.276  1.00  0.00     0.161 HD
BRANCH  19  21
ATOM     21  C   UNL     1     -46.620  27.999  23.674  1.00  0.00     0.005 C 
ATOM     22  H   UNL     1     -47.526  27.988  24.290  1.00  0.00     0.045 H 
ATOM     23  H   UNL     1     -46.820  27.381  22.792  1.00  0.00     0.045 H 
ATOM     24  H   UNL     1     -45.793  27.535  24.222  1.00  0.00     0.045 H 
ENDBRANCH  19  21
ENDBRANCH   5  19
ENDBRANCH   1   4
BRANCH   1  25
ATOM     25  C   UNL     1     -48.297  36.914  27.229  1.00  0.00    -0.024 C 
ATOM     26  H   UNL     1     -49.102  37.650  27.348  1.00  0.00     0.032 H 
ATOM     27  H   UNL     1     -47.908  37.061  26.213  1.00  0.00     0.032 H 
BRANCH  25  28
ATOM     28  C   UNL     1     -47.205  37.220  28.230  1.00  0.00    -0.046 A 
ATOM     29  C   UNL     1     -47.015  36.410  29.350  1.00  0.00    -0.059 A 
ATOM     30  C   UNL     1     -46.332  38.303  28.015  1.00  0.00    -0.035 A 
ATOM     31  C   UNL     1     -45.973  36.677  30.236  1.00  0.00    -0.060 A 
ATOM     32  H   UNL     1     -47.673  35.565  29.541  1.00  0.00     0.063 H 
ATOM     33  C   UNL     1     -45.253  38.560  28.877  1.00  0.00     0.047 A 
ATOM     34  H   UNL     1     -46.522  38.930  27.147  1.00  0.00     0.065 H 
ATOM     35  C   UNL     1     -45.095  37.740  30.000  1.00  0.00    -0.038 A 
ATOM     36  H   UNL     1     -45.829  36.045  31.109  1.00  0.00     0.062 H 
ATOM     37  H   UNL     1     -44.280  37.872  30.705  1.00  0.00     0.064 H 
BRANCH  33  38
ATOM     38  N   UNL     1     -44.324  39.614  28.575  1.00  0.00    -0.300 N 
ATOM     39  C   UNL     1     -43.256  39.978  29.380  1.00  0.00     0.030 A 
ATOM     40  C   UNL     1     -44.321  40.475  27.474  1.00  0.00     0.151 A 
ATOM     41  C   UNL     1     -42.602  41.043  28.814  1.00  0.00     0.072 A 
ATOM     42  H   UNL     1     -43.053  39.488  30.321  1.00  0.00     0.084 H 
ATOM     43  C   UNL     1     -43.256  41.366  27.605  1.00  0.00     0.080 A 
ATOM     44  N   UNL     1     -45.178  40.456  26.432  1.00  0.00    -0.218 NA
ATOM     45  Cl  UNL     1     -41.251  41.840  29.474  1.00  0.00    -0.082 Cl
ATOM     46  C   UNL     1     -43.083  42.314  26.585  1.00  0.00     0.137 A 
ATOM     47  C   UNL     1     -44.916  41.403  25.523  1.00  0.00     0.120 A 
ATOM     48  N   UNL     1     -43.940  42.323  25.548  1.00  0.00    -0.219 NA
ATOM     49  H   UNL     1     -45.575  41.435  24.661  1.00  0.00     0.106 H 
BRANCH  46  50
ATOM     50  N   UNL     1     -42.077  43.265  26.572  1.00  0.00    -0.383 N 
ATOM     51  H   UNL     1     -41.130  42.907  26.548  1.00  0.00     0.158 HD
ATOM     52  H   UNL     1     -42.271  44.031  27.204  1.00  0.00     0.158 HD
ENDBRANCH  46  50
ENDBRANCH  33  38
ENDBRANCH  25  28
ENDBRANCH   1  25
TORSDOF 7
ENDMDL
MODEL 2
REMARK VINA RESULT:     -10.4      1.837      2.694
REMARK SMILES CNc1ccc2cc(CCc3cccc(-n4cc(Cl)c5c(N)ncnc54)c3)ccc2n1
REMARK SMILES IDX 9 1 8 4 3 5 4 6 31 7 5 8 30 10 6 11 29 13 7 14 28 15 2 19
REMARK SMILES IDX 1 21 10 25 11 28 12 29 27 30 13 31 15 33 14 35 16 38 17 39
REMARK SMILES IDX 26 40 18 41 20 43 25 44 19 45 21 46 24 47 23 48 22 50
REMARK H PARENT 9 2 9 3 4 9 5 12 29 16 7 17 28 18 2 20 1 22 1 23 1 24 10 26
REMARK H PARENT 10 27 12 32 27 34 13 36 14 37 17 42 24 49 22 51 22 52
REMARK Flexibility Score: inf
ROOT
ATOM      1  C   UNL     1     -46.324  34.338  26.477  1.00  0.00    -0.024 C 
ATOM      2  H   UNL     1     -45.691  34.929  25.802  1.00  0.00     0.032 H 
ATOM      3  H   UNL     1     -45.643  33.896  27.216  1.00  0.00     0.032 H 
ENDROOT
BRANCH   1   4
ATOM      4  C   UNL     1     -46.983  33.216  25.707  1.00  0.00    -0.047 A 
ATOM      5  C   UNL     1     -48.215  29.661  22.413  1.00  0.00     0.126 A 
ATOM      6  C   UNL     1     -46.846  29.835  22.240  1.00  0.00    -0.019 A 
ATOM      7  N   UNL     1     -48.907  30.370  23.327  1.00  0.00    -0.231 NA
ATOM      8  C   UNL     1     -46.168  30.752  23.035  1.00  0.00    -0.049 A 
ATOM      9  H   UNL     1     -46.312  29.274  21.480  1.00  0.00     0.066 H 
ATOM     10  C   UNL     1     -48.258  31.261  24.097  1.00  0.00     0.073 A 
ATOM     11  C   UNL     1     -46.874  31.489  23.987  1.00  0.00     0.001 A 
ATOM     12  H   UNL     1     -45.100  30.894  22.895  1.00  0.00     0.063 H 
ATOM     13  C   UNL     1     -48.969  32.005  25.028  1.00  0.00    -0.035 A 
ATOM     14  C   UNL     1     -46.244  32.450  24.796  1.00  0.00    -0.050 A 
ATOM     15  C   UNL     1     -48.353  32.976  25.826  1.00  0.00    -0.057 A 
ATOM     16  H   UNL     1     -50.040  31.837  25.122  1.00  0.00     0.065 H 
ATOM     17  H   UNL     1     -45.176  32.636  24.682  1.00  0.00     0.063 H 
ATOM     18  H   UNL     1     -48.958  33.552  26.522  1.00  0.00     0.063 H 
BRANCH   5  19
ATOM     19  N   UNL     1     -48.872  28.748  21.567  1.00  0.00    -0.373 N 
ATOM     20  H   UNL     1     -49.527  28.201  22.118  1.00  0.00     0.161 HD
BRANCH  19  21
ATOM     21  C   UNL     1     -49.511  29.359  20.413  1.00  0.00     0.005 C 
ATOM     22  H   UNL     1     -50.517  29.720  20.656  1.00  0.00     0.045 H 
ATOM     23  H   UNL     1     -48.922  30.228  20.100  1.00  0.00     0.045 H 
ATOM     24  H   UNL     1     -49.560  28.668  19.565  1.00  0.00     0.045 H 
ENDBRANCH  19  21
ENDBRANCH   5  19
ENDBRANCH   1   4
BRANCH   1  25
ATOM     25  C   UNL     1     -47.329  35.249  27.202  1.00  0.00    -0.024 C 
ATOM     26  H   UNL     1     -48.001  34.625  27.805  1.00  0.00     0.032 H 
ATOM     27  H   UNL     1     -47.973  35.768  26.481  1.00  0.00     0.032 H 
BRANCH  25  28
ATOM     28  C   UNL     1     -46.669  36.268  28.106  1.00  0.00    -0.046 A 
ATOM     29  C   UNL     1     -46.521  36.022  29.471  1.00  0.00    -0.059 A 
ATOM     30  C   UNL     1     -46.151  37.460  27.566  1.00  0.00    -0.035 A 
ATOM     31  C   UNL     1     -45.866  36.948  30.280  1.00  0.00    -0.060 A 
ATOM     32  H   UNL     1     -46.910  35.109  29.915  1.00  0.00     0.063 H 
ATOM     33  C   UNL     1     -45.453  38.384  28.362  1.00  0.00     0.047 A 
ATOM     34  H   UNL     1     -46.305  37.633  26.504  1.00  0.00     0.065 H 
ATOM     35  C   UNL     1     -45.332  38.119  29.730  1.00  0.00    -0.038 A 
ATOM     36  H   UNL     1     -45.754  36.755  31.344  1.00  0.00     0.062 H 
ATOM     37  H   UNL     1     -44.799  38.781  30.405  1.00  0.00     0.064 H 
BRANCH  33  38
ATOM     38  N   UNL     1     -44.853  39.544  27.762  1.00  0.00    -0.300 N 
ATOM     39  C   UNL     1     -45.241  40.096  26.551  1.00  0.00     0.030 A 
ATOM     40  C   UNL     1     -43.779  40.304  28.234  1.00  0.00     0.151 A 
ATOM     41  C   UNL     1     -44.433  41.166  26.259  1.00  0.00     0.072 A 
ATOM     42  H   UNL     1     -46.036  39.671  25.955  1.00  0.00     0.084 H 
ATOM     43  C   UNL     1     -43.509  41.318  27.316  1.00  0.00     0.080 A 
ATOM     44  N   UNL     1     -43.112  40.125  29.394  1.00  0.00    -0.218 NA
ATOM     45  Cl  UNL     1     -44.527  42.124  24.856  1.00  0.00    -0.082 Cl
ATOM     46  C   UNL     1     -42.457  42.195  27.620  1.00  0.00     0.137 A 
ATOM     47  C   UNL     1     -42.133  41.020  29.577  1.00  0.00     0.120 A 
ATOM     48  N   UNL     1     -41.768  42.021  28.761  1.00  0.00    -0.219 NA
ATOM     49  H   UNL     1     -41.562  40.924  30.495  1.00  0.00     0.106 H 
BRANCH  46  50
ATOM     50  N   UNL     1     -42.066  43.248  26.809  1.00  0.00    -0.383 N 
ATOM     51  H   UNL     1     -42.797  43.893  26.538  1.00  0.00     0.158 HD
ATOM     52  H   UNL     1     -41.415  42.953  26.092  1.00  0.00     0.158 HD
ENDBRANCH  46  50
ENDBRANCH  33  38
ENDBRANCH  25  28
ENDBRANCH   1  25
TORSDOF 7
ENDMDL
MODEL 3
REMARK VINA RESULT:     -10.2      1.606      2.498
REMARK SMILES CNc1ccc2cc(CCc3cccc(-n4cc(Cl)c5c(N)ncnc54)c3)ccc2n1
REMARK SMILES IDX 9 1 8 4 3 5 4 6 31 7 5 8 30 10 6 11 29 13 7 14 28 15 2 19
REMARK SMILES IDX 1 21 10 25 11 28 12 29 27 30 13 31 15 33 14 35 16 38 17 39
REMARK SMILES IDX 26 40 18 41 20 43 25 44 19 45 21 46 24 47 23 48 22 50
REMARK H PARENT 9 2 9 3 4 9 5 12 29 16 7 17 28 18 2 20 1 22 1 23 1 24 10 26
REMARK H PARENT 10 27 12 32 27 34 13 36 14 37 17 42 24 49 22 51 22 52
REMARK Flexibility Score: inf
ROOT
ATOM      1  C   UNL     1     -48.543  35.704  27.366  1.00  0.00    -0.024 C 
ATOM      2  H   UNL     1     -49.171  35.254  28.145  1.00  0.00     0.032 H 
ATOM      3  H   UNL     1     -49.208  36.358  26.787  1.00  0.00     0.032 H 
ENDROOT
BRANCH   1   4
ATOM      4  C   UNL     1     -48.017  34.626  26.446  1.00  0.00    -0.047 A 
ATOM      5  C   UNL     1     -47.090  30.370  23.990  1.00  0.00     0.126 A 
ATOM      6  C   UNL     1     -48.377  30.208  24.491  1.00  0.00    -0.019 A 
ATOM      7  N   UNL     1     -46.387  31.501  24.201  1.00  0.00    -0.231 NA
ATOM      8  C   UNL     1     -48.962  31.239  25.218  1.00  0.00    -0.049 A 
ATOM      9  H   UNL     1     -48.916  29.279  24.334  1.00  0.00     0.066 H 
ATOM     10  C   UNL     1     -46.946  32.500  24.906  1.00  0.00     0.073 A 
ATOM     11  C   UNL     1     -48.244  32.415  25.439  1.00  0.00     0.001 A 
ATOM     12  H   UNL     1     -49.964  31.110  25.617  1.00  0.00     0.063 H 
ATOM     13  C   UNL     1     -46.220  33.660  25.139  1.00  0.00    -0.035 A 
ATOM     14  C   UNL     1     -48.776  33.477  26.192  1.00  0.00    -0.050 A 
ATOM     15  C   UNL     1     -46.735  34.715  25.901  1.00  0.00    -0.057 A 
ATOM     16  H   UNL     1     -45.214  33.737  24.731  1.00  0.00     0.065 H 
ATOM     17  H   UNL     1     -49.774  33.387  26.623  1.00  0.00     0.063 H 
ATOM     18  H   UNL     1     -46.116  35.591  26.079  1.00  0.00     0.063 H 
BRANCH   5  19
ATOM     19  N   UNL     1     -46.520  29.292  23.288  1.00  0.00    -0.373 N 
ATOM     20  H   UNL     1     -45.519  29.444  23.207  1.00  0.00     0.161 HD
BRANCH  19  21
ATOM     21  C   UNL     1     -46.827  27.986  23.851  1.00  0.00     0.005 C 
ATOM     22  H   UNL     1     -47.001  27.242  23.066  1.00  0.00     0.045 H 
ATOM     23  H   UNL     1     -45.969  27.643  24.439  1.00  0.00     0.045 H 
ATOM     24  H   UNL     1     -47.692  28.029  24.521  1.00  0.00     0.045 H 
ENDBRANCH  19  21
ENDBRANCH   5  19
ENDBRANCH   1   4
BRANCH   1  25
ATOM     25  C   UNL     1     -47.431  36.557  28.002  1.00  0.00    -0.024 C 
ATOM     26  H   UNL     1     -46.465  36.244  27.587  1.00  0.00     0.032 H 
ATOM     27  H   UNL     1     -47.366  36.367  29.081  1.00  0.00     0.032 H 
BRANCH  25  28
ATOM     28  C   UNL     1     -47.606  38.041  27.766  1.00  0.00    -0.046 A 
ATOM     29  C   UNL     1     -48.789  38.687  28.126  1.00  0.00    -0.059 A 
ATOM     30  C   UNL     1     -46.552  38.799  27.224  1.00  0.00    -0.035 A 
ATOM     31  C   UNL     1     -48.915  40.063  27.949  1.00  0.00    -0.060 A 
ATOM     32  H   UNL     1     -49.620  38.127  28.550  1.00  0.00     0.063 H 
ATOM     33  C   UNL     1     -46.649  40.193  27.077  1.00  0.00     0.047 A 
ATOM     34  H   UNL     1     -45.654  38.262  26.930  1.00  0.00     0.065 H 
ATOM     35  C   UNL     1     -47.852  40.812  27.433  1.00  0.00    -0.038 A 
ATOM     36  H   UNL     1     -49.839  40.563  28.229  1.00  0.00     0.062 H 
ATOM     37  H   UNL     1     -47.998  41.886  27.356  1.00  0.00     0.064 H 
BRANCH  33  38
ATOM     38  N   UNL     1     -45.520  40.949  26.611  1.00  0.00    -0.300 N 
ATOM     39  C   UNL     1     -45.478  41.649  25.415  1.00  0.00     0.030 A 
ATOM     40  C   UNL     1     -44.272  41.105  27.221  1.00  0.00     0.151 A 
ATOM     41  C   UNL     1     -44.240  42.222  25.265  1.00  0.00     0.072 A 
ATOM     42  H   UNL     1     -46.312  41.662  24.728  1.00  0.00     0.084 H 
ATOM     43  C   UNL     1     -43.467  41.896  26.401  1.00  0.00     0.080 A 
ATOM     44  N   UNL     1     -43.889  40.605  28.415  1.00  0.00    -0.218 NA
ATOM     45  Cl  UNL     1     -43.731  43.145  23.930  1.00  0.00    -0.082 Cl
ATOM     46  C   UNL     1     -42.166  42.170  26.850  1.00  0.00     0.137 A 
ATOM     47  C   UNL     1     -42.631  40.932  28.738  1.00  0.00     0.120 A 
ATOM     48  N   UNL     1     -41.760  41.664  28.028  1.00  0.00    -0.219 NA
ATOM     49  H   UNL     1     -42.270  40.556  29.691  1.00  0.00     0.106 H 
BRANCH  46  50
ATOM     50  N   UNL     1     -41.249  42.935  26.150  1.00  0.00    -0.383 N 
ATOM     51  H   UNL     1     -40.274  42.720  26.318  1.00  0.00     0.158 HD
ATOM     52  H   UNL     1     -41.513  43.912  26.120  1.00  0.00     0.158 HD
ENDBRANCH  46  50
ENDBRANCH  33  38
ENDBRANCH  25  28
ENDBRANCH   1  25
TORSDOF 7
ENDMDL
MODEL 4
REMARK VINA RESULT:     -10.2      1.418      2.083
REMARK SMILES CNc1ccc2cc(CCc3cccc(-n4cc(Cl)c5c(N)ncnc54)c3)ccc2n1
REMARK SMILES IDX 9 1 8 4 3 5 4 6 31 7 5 8 30 10 6 11 29 13 7 14 28 15 2 19
REMARK SMILES IDX 1 21 10 25 11 28 12 29 27 30 13 31 15 33 14 35 16 38 17 39
REMARK SMILES IDX 26 40 18 41 20 43 25 44 19 45 21 46 24 47 23 48 22 50
REMARK H PARENT 9 2 9 3 4 9 5 12 29 16 7 17 28 18 2 20 1 22 1 23 1 24 10 26
REMARK H PARENT 10 27 12 32 27 34 13 36 14 37 17 42 24 49 22 51 22 52
REMARK Flexibility Score: inf
ROOT
ATOM      1  C   UNL     1     -46.779  35.259  26.235  1.00  0.00    -0.024 C 
ATOM      2  H   UNL     1     -46.905  35.967  25.406  1.00  0.00     0.032 H 
ATOM      3  H   UNL     1     -45.702  35.235  26.447  1.00  0.00     0.032 H 
ENDROOT
BRANCH   1   4
ATOM      4  C   UNL     1     -47.207  33.876  25.797  1.00  0.00    -0.047 A 
ATOM      5  C   UNL     1     -47.866  29.527  23.420  1.00  0.00     0.126 A 
ATOM      6  C   UNL     1     -46.633  29.985  22.968  1.00  0.00    -0.019 A 
ATOM      7  N   UNL     1     -48.593  30.222  24.317  1.00  0.00    -0.231 NA
ATOM      8  C   UNL     1     -46.127  31.183  23.462  1.00  0.00    -0.049 A 
ATOM      9  H   UNL     1     -46.076  29.424  22.225  1.00  0.00     0.066 H 
ATOM     10  C   UNL     1     -48.111  31.383  24.795  1.00  0.00     0.073 A 
ATOM     11  C   UNL     1     -46.870  31.909  24.394  1.00  0.00     0.001 A 
ATOM     12  H   UNL     1     -45.168  31.546  23.104  1.00  0.00     0.063 H 
ATOM     13  C   UNL     1     -48.863  32.109  25.708  1.00  0.00    -0.035 A 
ATOM     14  C   UNL     1     -46.420  33.140  24.903  1.00  0.00    -0.050 A 
ATOM     15  C   UNL     1     -48.431  33.344  26.206  1.00  0.00    -0.057 A 
ATOM     16  H   UNL     1     -49.825  31.713  26.026  1.00  0.00     0.065 H 
ATOM     17  H   UNL     1     -45.468  33.549  24.563  1.00  0.00     0.063 H 
ATOM     18  H   UNL     1     -49.069  33.889  26.899  1.00  0.00     0.063 H 
BRANCH   5  19
ATOM     19  N   UNL     1     -48.359  28.328  22.872  1.00  0.00    -0.373 N 
ATOM     20  H   UNL     1     -48.052  27.551  23.450  1.00  0.00     0.161 HD
BRANCH  19  21
ATOM     21  C   UNL     1     -49.799  28.315  22.667  1.00  0.00     0.005 C 
ATOM     22  H   UNL     1     -50.340  28.423  23.614  1.00  0.00     0.045 H 
ATOM     23  H   UNL     1     -50.075  29.167  22.037  1.00  0.00     0.045 H 
ATOM     24  H   UNL     1     -50.126  27.404  22.155  1.00  0.00     0.045 H 
ENDBRANCH  19  21
ENDBRANCH   5  19
ENDBRANCH   1   4
BRANCH   1  25
ATOM     25  C   UNL     1     -47.525  35.759  27.484  1.00  0.00    -0.024 C 
ATOM     26  H   UNL     1     -47.038  35.346  28.376  1.00  0.00     0.032 H 
ATOM     27  H   UNL     1     -48.553  35.373  27.502  1.00  0.00     0.032 H 
BRANCH  25  28
ATOM     28  C   UNL     1     -47.556  37.267  27.599  1.00  0.00    -0.046 A 
ATOM     29  C   UNL     1     -48.748  37.938  27.877  1.00  0.00    -0.059 A 
ATOM     30  C   UNL     1     -46.367  38.010  27.476  1.00  0.00    -0.035 A 
ATOM     31  C   UNL     1     -48.750  39.322  28.030  1.00  0.00    -0.060 A 
ATOM     32  H   UNL     1     -49.682  37.390  27.979  1.00  0.00     0.063 H 
ATOM     33  C   UNL     1     -46.347  39.401  27.668  1.00  0.00     0.047 A 
ATOM     34  H   UNL     1     -45.461  37.460  27.234  1.00  0.00     0.065 H 
ATOM     35  C   UNL     1     -47.558  40.049  27.931  1.00  0.00    -0.038 A 
ATOM     36  H   UNL     1     -49.680  39.843  28.244  1.00  0.00     0.062 H 
ATOM     37  H   UNL     1     -47.620  41.120  28.100  1.00  0.00     0.064 H 
BRANCH  33  38
ATOM     38  N   UNL     1     -45.101  40.116  27.631  1.00  0.00    -0.300 N 
ATOM     39  C   UNL     1     -44.079  39.968  28.556  1.00  0.00     0.030 A 
ATOM     40  C   UNL     1     -44.689  41.089  26.716  1.00  0.00     0.151 A 
ATOM     41  C   UNL     1     -43.055  40.828  28.245  1.00  0.00     0.072 A 
ATOM     42  H   UNL     1     -44.160  39.296  29.398  1.00  0.00     0.084 H 
ATOM     43  C   UNL     1     -43.420  41.538  27.080  1.00  0.00     0.080 A 
ATOM     44  N   UNL     1     -45.374  41.524  25.637  1.00  0.00    -0.218 NA
ATOM     45  Cl  UNL     1     -41.613  41.010  29.128  1.00  0.00    -0.082 Cl
ATOM     46  C   UNL     1     -42.831  42.523  26.272  1.00  0.00     0.137 A 
ATOM     47  C   UNL     1     -44.714  42.460  24.943  1.00  0.00     0.120 A 
ATOM     48  N   UNL     1     -43.506  42.983  25.204  1.00  0.00    -0.219 NA
ATOM     49  H   UNL     1     -45.219  42.847  24.063  1.00  0.00     0.106 H 
BRANCH  46  50
ATOM     50  N   UNL     1     -41.581  43.070  26.503  1.00  0.00    -0.383 N 
ATOM     51  H   UNL     1     -41.518  44.078  26.428  1.00  0.00     0.158 HD
ATOM     52  H   UNL     1     -40.842  42.524  26.077  1.00  0.00     0.158 HD
ENDBRANCH  46  50
ENDBRANCH  33  38
ENDBRANCH  25  28
ENDBRANCH   1  25
TORSDOF 7
ENDMDL
MODEL 5
REMARK VINA RESULT:     -10.0      3.147     10.066
REMARK SMILES CNc1ccc2cc(CCc3cccc(-n4cc(Cl)c5c(N)ncnc54)c3)ccc2n1
REMARK SMILES IDX 9 1 8 4 3 5 4 6 31 7 5 8 30 10 6 11 29 13 7 14 28 15 2 19
REMARK SMILES IDX 1 21 10 25 11 28 12 29 27 30 13 31 15 33 14 35 16 38 17 39
REMARK SMILES IDX 26 40 18 41 20 43 25 44 19 45 21 46 24 47 23 48 22 50
REMARK H PARENT 9 2 9 3 4 9 5 12 29 16 7 17 28 18 2 20 1 22 1 23 1 24 10 26
REMARK H PARENT 10 27 12 32 27 34 13 36 14 37 17 42 24 49 22 51 22 52
REMARK Flexibility Score: inf
ROOT
ATOM      1  C   UNL     1     -45.448  36.885  29.320  1.00  0.00    -0.024 C 
ATOM      2  H   UNL     1     -46.509  37.028  29.565  1.00  0.00     0.032 H 
ATOM      3  H   UNL     1     -44.983  36.482  30.229  1.00  0.00     0.032 H 
ENDROOT
BRANCH   1   4
ATOM      4  C   UNL     1     -44.810  38.220  29.012  1.00  0.00    -0.047 A 
ATOM      5  C   UNL     1     -42.968  42.335  26.846  1.00  0.00     0.126 A 
ATOM      6  C   UNL     1     -43.888  41.841  25.927  1.00  0.00    -0.019 A 
ATOM      7  N   UNL     1     -42.750  41.721  28.027  1.00  0.00    -0.231 NA
ATOM      8  C   UNL     1     -44.613  40.695  26.234  1.00  0.00    -0.049 A 
ATOM      9  H   UNL     1     -44.028  42.334  24.971  1.00  0.00     0.066 H 
ATOM     10  C   UNL     1     -43.445  40.610  28.328  1.00  0.00     0.073 A 
ATOM     11  C   UNL     1     -44.398  40.054  27.456  1.00  0.00     0.001 A 
ATOM     12  H   UNL     1     -45.326  40.304  25.514  1.00  0.00     0.063 H 
ATOM     13  C   UNL     1     -43.213  39.967  29.536  1.00  0.00    -0.035 A 
ATOM     14  C   UNL     1     -45.081  38.875  27.804  1.00  0.00    -0.050 A 
ATOM     15  C   UNL     1     -43.876  38.784  29.884  1.00  0.00    -0.057 A 
ATOM     16  H   UNL     1     -42.479  40.388  30.219  1.00  0.00     0.065 H 
ATOM     17  H   UNL     1     -45.797  38.440  27.106  1.00  0.00     0.063 H 
ATOM     18  H   UNL     1     -43.639  38.302  30.829  1.00  0.00     0.063 H 
BRANCH   5  19
ATOM     19  N   UNL     1     -42.231  43.477  26.486  1.00  0.00    -0.373 N 
ATOM     20  H   UNL     1     -41.346  43.470  26.985  1.00  0.00     0.161 HD
BRANCH  19  21
ATOM     21  C   UNL     1     -42.043  43.637  25.053  1.00  0.00     0.005 C 
ATOM     22  H   UNL     1     -42.596  42.878  24.488  1.00  0.00     0.045 H 
ATOM     23  H   UNL     1     -42.435  44.615  24.751  1.00  0.00     0.045 H 
ATOM     24  H   UNL     1     -40.984  43.606  24.778  1.00  0.00     0.045 H 
ENDBRANCH  19  21
ENDBRANCH   5  19
ENDBRANCH   1   4
BRANCH   1  25
ATOM     25  C   UNL     1     -45.295  35.861  28.182  1.00  0.00    -0.024 C 
ATOM     26  H   UNL     1     -44.716  35.005  28.551  1.00  0.00     0.032 H 
ATOM     27  H   UNL     1     -44.708  36.283  27.357  1.00  0.00     0.032 H 
BRANCH  25  28
ATOM     28  C   UNL     1     -46.619  35.359  27.646  1.00  0.00    -0.046 A 
ATOM     29  C   UNL     1     -47.759  36.162  27.693  1.00  0.00    -0.059 A 
ATOM     30  C   UNL     1     -46.702  34.089  27.047  1.00  0.00    -0.035 A 
ATOM     31  C   UNL     1     -48.957  35.705  27.150  1.00  0.00    -0.060 A 
ATOM     32  H   UNL     1     -47.723  37.149  28.148  1.00  0.00     0.063 H 
ATOM     33  C   UNL     1     -47.893  33.631  26.460  1.00  0.00     0.047 A 
ATOM     34  H   UNL     1     -45.803  33.478  27.050  1.00  0.00     0.065 H 
ATOM     35  C   UNL     1     -49.024  34.450  26.533  1.00  0.00    -0.038 A 
ATOM     36  H   UNL     1     -49.844  36.332  27.189  1.00  0.00     0.062 H 
ATOM     37  H   UNL     1     -49.976  34.168  26.094  1.00  0.00     0.064 H 
BRANCH  33  38
ATOM     38  N   UNL     1     -47.918  32.369  25.771  1.00  0.00    -0.300 N 
ATOM     39  C   UNL     1     -48.656  31.266  26.172  1.00  0.00     0.030 A 
ATOM     40  C   UNL     1     -47.213  31.996  24.623  1.00  0.00     0.151 A 
ATOM     41  C   UNL     1     -48.418  30.223  25.313  1.00  0.00     0.072 A 
ATOM     42  H   UNL     1     -49.267  31.278  27.062  1.00  0.00     0.084 H 
ATOM     43  C   UNL     1     -47.515  30.669  24.323  1.00  0.00     0.080 A 
ATOM     44  N   UNL     1     -46.389  32.777  23.893  1.00  0.00    -0.218 NA
ATOM     45  Cl  UNL     1     -49.085  28.663  25.440  1.00  0.00    -0.082 Cl
ATOM     46  C   UNL     1     -46.900  30.111  23.191  1.00  0.00     0.137 A 
ATOM     47  C   UNL     1     -45.863  32.140  22.840  1.00  0.00     0.120 A 
ATOM     48  N   UNL     1     -46.061  30.867  22.462  1.00  0.00    -0.219 NA
ATOM     49  H   UNL     1     -45.191  32.721  22.215  1.00  0.00     0.106 H 
BRANCH  46  50
ATOM     50  N   UNL     1     -47.096  28.808  22.765  1.00  0.00    -0.383 N 
ATOM     51  H   UNL     1     -47.988  28.393  23.005  1.00  0.00     0.158 HD
ATOM     52  H   UNL     1     -46.268  28.239  22.891  1.00  0.00     0.158 HD
ENDBRANCH  46  50
ENDBRANCH  33  38
ENDBRANCH  25  28
ENDBRANCH   1  25
TORSDOF 7
ENDMDL
MODEL 6
REMARK VINA RESULT:     -10.0      2.383      4.211
REMARK SMILES CNc1ccc2cc(CCc3cccc(-n4cc(Cl)c5c(N)ncnc54)c3)ccc2n1
REMARK SMILES IDX 9 1 8 4 3 5 4 6 31 7 5 8 30 10 6 11 29 13 7 14 28 15 2 19
REMARK SMILES IDX 1 21 10 25 11 28 12 29 27 30 13 31 15 33 14 35 16 38 17 39
REMARK SMILES IDX 26 40 18 41 20 43 25 44 19 45 21 46 24 47 23 48 22 50
REMARK H PARENT 9 2 9 3 4 9 5 12 29 16 7 17 28 18 2 20 1 22 1 23 1 24 10 26
REMARK H PARENT 10 27 12 32 27 34 13 36 14 37 17 42 24 49 22 51 22 52
REMARK Flexibility Score: inf
ROOT
ATOM      1  C   UNL     1     -46.193  38.624  27.755  1.00  0.00    -0.024 C 
ATOM      2  H   UNL     1     -46.919  39.402  28.023  1.00  0.00     0.032 H 
ATOM      3  H   UNL     1     -45.742  38.949  26.808  1.00  0.00     0.032 H 
ENDROOT
BRANCH   1   4
ATOM      4  C   UNL     1     -46.912  37.315  27.515  1.00  0.00    -0.047 A 
ATOM      5  C   UNL     1     -48.445  32.856  25.852  1.00  0.00     0.126 A 
ATOM      6  C   UNL     1     -47.113  32.932  25.461  1.00  0.00    -0.019 A 
ATOM      7  N   UNL     1     -49.039  33.853  26.538  1.00  0.00    -0.231 NA
ATOM      8  C   UNL     1     -46.366  34.057  25.795  1.00  0.00    -0.049 A 
ATOM      9  H   UNL     1     -46.662  32.130  24.886  1.00  0.00     0.066 H 
ATOM     10  C   UNL     1     -48.323  34.945  26.860  1.00  0.00     0.073 A 
ATOM     11  C   UNL     1     -46.970  35.094  26.508  1.00  0.00     0.001 A 
ATOM     12  H   UNL     1     -45.327  34.121  25.483  1.00  0.00     0.063 H 
ATOM     13  C   UNL     1     -48.934  35.981  27.553  1.00  0.00    -0.035 A 
ATOM     14  C   UNL     1     -46.270  36.266  26.845  1.00  0.00    -0.050 A 
ATOM     15  C   UNL     1     -48.250  37.158  27.878  1.00  0.00    -0.057 A 
ATOM     16  H   UNL     1     -49.981  35.878  27.831  1.00  0.00     0.065 H 
ATOM     17  H   UNL     1     -45.229  36.379  26.542  1.00  0.00     0.063 H 
ATOM     18  H   UNL     1     -48.781  37.953  28.397  1.00  0.00     0.063 H 
BRANCH   5  19
ATOM     19  N   UNL     1     -49.177  31.717  25.467  1.00  0.00    -0.373 N 
ATOM     20  H   UNL     1     -50.072  31.722  25.947  1.00  0.00     0.161 HD
BRANCH  19  21
ATOM     21  C   UNL     1     -49.333  31.567  24.029  1.00  0.00     0.005 C 
ATOM     22  H   UNL     1     -50.325  31.892  23.696  1.00  0.00     0.045 H 
ATOM     23  H   UNL     1     -48.597  32.204  23.524  1.00  0.00     0.045 H 
ATOM     24  H   UNL     1     -49.153  30.536  23.708  1.00  0.00     0.045 H 
ENDBRANCH  19  21
ENDBRANCH   5  19
ENDBRANCH   1   4
BRANCH   1  25
ATOM     25  C   UNL     1     -45.094  38.526  28.827  1.00  0.00    -0.024 C 
ATOM     26  H   UNL     1     -44.548  37.584  28.689  1.00  0.00     0.032 H 
ATOM     27  H   UNL     1     -45.535  38.468  29.831  1.00  0.00     0.032 H 
BRANCH  25  28
ATOM     28  C   UNL     1     -44.108  39.673  28.781  1.00  0.00    -0.046 A 
ATOM     29  C   UNL     1     -43.075  39.764  29.714  1.00  0.00    -0.059 A 
ATOM     30  C   UNL     1     -44.194  40.638  27.761  1.00  0.00    -0.035 A 
ATOM     31  C   UNL     1     -42.146  40.798  29.627  1.00  0.00    -0.060 A 
ATOM     32  H   UNL     1     -42.982  39.031  30.513  1.00  0.00     0.063 H 
ATOM     33  C   UNL     1     -43.242  41.662  27.636  1.00  0.00     0.047 A 
ATOM     34  H   UNL     1     -45.026  40.553  27.065  1.00  0.00     0.065 H 
ATOM     35  C   UNL     1     -42.224  41.738  28.594  1.00  0.00    -0.038 A 
ATOM     36  H   UNL     1     -41.342  40.867  30.356  1.00  0.00     0.062 H 
ATOM     37  H   UNL     1     -41.448  42.496  28.557  1.00  0.00     0.064 H 
BRANCH  33  38
ATOM     38  N   UNL     1     -43.303  42.573  26.527  1.00  0.00    -0.300 N 
ATOM     39  C   UNL     1     -42.488  42.510  25.407  1.00  0.00     0.030 A 
ATOM     40  C   UNL     1     -44.137  43.684  26.364  1.00  0.00     0.151 A 
ATOM     41  C   UNL     1     -42.787  43.552  24.566  1.00  0.00     0.072 A 
ATOM     42  H   UNL     1     -41.722  41.756  25.298  1.00  0.00     0.084 H 
ATOM     43  C   UNL     1     -43.832  44.300  25.151  1.00  0.00     0.080 A 
ATOM     44  N   UNL     1     -45.101  44.100  27.213  1.00  0.00    -0.218 NA
ATOM     45  Cl  UNL     1     -42.012  43.886  23.089  1.00  0.00    -0.082 Cl
ATOM     46  C   UNL     1     -44.574  45.440  24.806  1.00  0.00     0.137 A 
ATOM     47  C   UNL     1     -45.741  45.194  26.780  1.00  0.00     0.120 A 
ATOM     48  N   UNL     1     -45.525  45.882  25.648  1.00  0.00    -0.219 NA
ATOM     49  H   UNL     1     -46.528  45.574  27.423  1.00  0.00     0.106 H 
BRANCH  46  50
ATOM     50  N   UNL     1     -44.388  46.163  23.640  1.00  0.00    -0.383 N 
ATOM     51  H   UNL     1     -45.227  46.538  23.214  1.00  0.00     0.158 HD
ATOM     52  H   UNL     1     -43.709  45.728  23.028  1.00  0.00     0.158 HD
ENDBRANCH  46  50
ENDBRANCH  33  38
ENDBRANCH  25  28
ENDBRANCH   1  25
TORSDOF 7
ENDMDL
MODEL 7
REMARK VINA RESULT:      -9.9      3.396     10.622
REMARK SMILES CNc1ccc2cc(CCc3cccc(-n4cc(Cl)c5c(N)ncnc54)c3)ccc2n1
REMARK SMILES IDX 9 1 8 4 3 5 4 6 31 7 5 8 30 10 6 11 29 13 7 14 28 15 2 19
REMARK SMILES IDX 1 21 10 25 11 28 12 29 27 30 13 31 15 33 14 35 16 38 17 39
REMARK SMILES IDX 26 40 18 41 20 43 25 44 19 45 21 46 24 47 23 48 22 50
REMARK H PARENT 9 2 9 3 4 9 5 12 29 16 7 17 28 18 2 20 1 22 1 23 1 24 10 26
REMARK H PARENT 10 27 12 32 27 34 13 36 14 37 17 42 24 49 22 51 22 52
REMARK Flexibility Score: inf
ROOT
ATOM      1  C   UNL     1     -46.338  37.561  27.743  1.00  0.00    -0.024 C 
ATOM      2  H   UNL     1     -47.054  37.635  28.571  1.00  0.00     0.032 H 
ATOM      3  H   UNL     1     -45.477  37.009  28.141  1.00  0.00     0.032 H 
ENDROOT
BRANCH   1   4
ATOM      4  C   UNL     1     -45.872  38.943  27.344  1.00  0.00    -0.047 A 
ATOM      5  C   UNL     1     -43.595  43.381  26.982  1.00  0.00     0.126 A 
ATOM      6  C   UNL     1     -42.704  42.591  27.701  1.00  0.00    -0.019 A 
ATOM      7  N   UNL     1     -44.772  42.894  26.540  1.00  0.00    -0.231 NA
ATOM      8  C   UNL     1     -43.025  41.263  27.962  1.00  0.00    -0.049 A 
ATOM      9  H   UNL     1     -41.775  43.010  28.072  1.00  0.00     0.066 H 
ATOM     10  C   UNL     1     -45.089  41.612  26.791  1.00  0.00     0.073 A 
ATOM     11  C   UNL     1     -44.239  40.748  27.505  1.00  0.00     0.001 A 
ATOM     12  H   UNL     1     -42.333  40.648  28.530  1.00  0.00     0.063 H 
ATOM     13  C   UNL     1     -46.307  41.111  26.351  1.00  0.00    -0.035 A 
ATOM     14  C   UNL     1     -44.626  39.422  27.766  1.00  0.00    -0.050 A 
ATOM     15  C   UNL     1     -46.708  39.797  26.621  1.00  0.00    -0.057 A 
ATOM     16  H   UNL     1     -46.973  41.769  25.798  1.00  0.00     0.065 H 
ATOM     17  H   UNL     1     -43.969  38.772  28.344  1.00  0.00     0.063 H 
ATOM     18  H   UNL     1     -47.683  39.460  26.278  1.00  0.00     0.063 H 
BRANCH   5  19
ATOM     19  N   UNL     1     -43.250  44.728  26.767  1.00  0.00    -0.373 N 
ATOM     20  H   UNL     1     -42.829  44.818  25.848  1.00  0.00     0.161 HD
BRANCH  19  21
ATOM     21  C   UNL     1     -44.350  45.661  26.953  1.00  0.00     0.005 C 
ATOM     22  H   UNL     1     -44.171  46.604  26.424  1.00  0.00     0.045 H 
ATOM     23  H   UNL     1     -45.262  45.222  26.534  1.00  0.00     0.045 H 
ATOM     24  H   UNL     1     -44.537  45.860  28.014  1.00  0.00     0.045 H 
ENDBRANCH  19  21
ENDBRANCH   5  19
ENDBRANCH   1   4
BRANCH   1  25
ATOM     25  C   UNL     1     -46.949  36.765  26.577  1.00  0.00    -0.024 C 
ATOM     26  H   UNL     1     -46.491  37.104  25.639  1.00  0.00     0.032 H 
ATOM     27  H   UNL     1     -48.021  36.982  26.479  1.00  0.00     0.032 H 
BRANCH  25  28
ATOM     28  C   UNL     1     -46.752  35.271  26.704  1.00  0.00    -0.046 A 
ATOM     29  C   UNL     1     -46.055  34.732  27.786  1.00  0.00    -0.059 A 
ATOM     30  C   UNL     1     -47.315  34.400  25.752  1.00  0.00    -0.035 A 
ATOM     31  C   UNL     1     -45.926  33.351  27.914  1.00  0.00    -0.060 A 
ATOM     32  H   UNL     1     -45.611  35.380  28.538  1.00  0.00     0.063 H 
ATOM     33  C   UNL     1     -47.227  33.005  25.890  1.00  0.00     0.047 A 
ATOM     34  H   UNL     1     -47.829  34.853  24.908  1.00  0.00     0.065 H 
ATOM     35  C   UNL     1     -46.511  32.492  26.977  1.00  0.00    -0.038 A 
ATOM     36  H   UNL     1     -45.381  32.933  28.758  1.00  0.00     0.062 H 
ATOM     37  H   UNL     1     -46.409  31.426  27.154  1.00  0.00     0.064 H 
BRANCH  33  38
ATOM     38  N   UNL     1     -47.896  32.145  24.953  1.00  0.00    -0.300 N 
ATOM     39  C   UNL     1     -49.205  31.706  25.080  1.00  0.00     0.030 A 
ATOM     40  C   UNL     1     -47.381  31.569  23.788  1.00  0.00     0.151 A 
ATOM     41  C   UNL     1     -49.508  30.870  24.035  1.00  0.00     0.072 A 
ATOM     42  H   UNL     1     -49.823  31.980  25.923  1.00  0.00     0.084 H 
ATOM     43  C   UNL     1     -48.370  30.778  23.204  1.00  0.00     0.080 A 
ATOM     44  N   UNL     1     -46.145  31.749  23.277  1.00  0.00    -0.218 NA
ATOM     45  Cl  UNL     1     -50.994  30.074  23.803  1.00  0.00    -0.082 Cl
ATOM     46  C   UNL     1     -48.041  30.115  22.012  1.00  0.00     0.137 A 
ATOM     47  C   UNL     1     -45.946  31.069  22.140  1.00  0.00     0.120 A 
ATOM     48  N   UNL     1     -46.808  30.267  21.497  1.00  0.00    -0.219 NA
ATOM     49  H   UNL     1     -44.967  31.177  21.684  1.00  0.00     0.106 H 
BRANCH  46  50
ATOM     50  N   UNL     1     -48.912  29.294  21.315  1.00  0.00    -0.383 N 
ATOM     51  H   UNL     1     -49.898  29.462  21.470  1.00  0.00     0.158 HD
ATOM     52  H   UNL     1     -48.598  28.332  21.303  1.00  0.00     0.158 HD
ENDBRANCH  46  50
ENDBRANCH  33  38
ENDBRANCH  25  28
ENDBRANCH   1  25
TORSDOF 7
ENDMDL
