MODEL 1
REMARK VINA RESULT:     -10.1      0.000      0.000
REMARK SMILES Cn1c(CNCC2CCC2)cc2ccc(CNC(=O)c3cc(=O)n4ccccc4n3)cc21
REMARK SMILES IDX 2 1 3 2 11 3 12 4 13 5 14 6 15 7 31 8 32 9 1 14 4 18 5 21
REMARK SMILES IDX 6 23 7 26 8 27 10 28 9 30 16 37 17 40 18 41 19 43 20 44
REMARK SMILES IDX 21 45 30 46 22 47 29 49 23 50 24 51 28 52 25 53 27 54 26 56
REMARK H PARENT 11 10 13 11 14 12 31 13 1 15 1 16 1 17 4 19 4 20 5 22 6 24
REMARK H PARENT 6 25 7 29 8 31 8 32 10 33 10 34 9 35 9 36 16 38 16 39 17 42
REMARK H PARENT 21 48 28 55 25 57 27 58 26 59
REMARK Flexibility Score: inf
ROOT
ATOM      1  N   UNL     1     -48.475  31.280  24.775  1.00  0.00    -0.346 N 
ATOM      2  C   UNL     1     -47.462  30.669  24.064  1.00  0.00     0.032 A 
ATOM      3  C   UNL     1     -46.355  31.493  24.148  1.00  0.00    -0.032 A 
ATOM      4  C   UNL     1     -46.704  32.637  24.910  1.00  0.00    -0.000 A 
ATOM      5  C   UNL     1     -46.001  33.791  25.306  1.00  0.00    -0.052 A 
ATOM      6  C   UNL     1     -46.652  34.769  26.065  1.00  0.00    -0.057 A 
ATOM      7  C   UNL     1     -47.991  34.617  26.441  1.00  0.00    -0.027 A 
ATOM      8  C   UNL     1     -48.705  33.473  26.044  1.00  0.00    -0.033 A 
ATOM      9  C   UNL     1     -48.040  32.492  25.287  1.00  0.00     0.048 A 
ATOM     10  H   UNL     1     -45.391  31.296  23.698  1.00  0.00     0.065 H 
ATOM     11  H   UNL     1     -44.962  33.927  25.020  1.00  0.00     0.063 H 
ATOM     12  H   UNL     1     -46.104  35.663  26.359  1.00  0.00     0.063 H 
ATOM     13  H   UNL     1     -49.748  33.352  26.317  1.00  0.00     0.065 H 
ENDROOT
BRANCH   1  14
ATOM     14  C   UNL     1     -49.816  30.759  24.939  1.00  0.00     0.012 C 
ATOM     15  H   UNL     1     -50.239  31.188  25.850  1.00  0.00     0.046 H 
ATOM     16  H   UNL     1     -50.425  31.019  24.070  1.00  0.00     0.046 H 
ATOM     17  H   UNL     1     -49.778  29.670  25.013  1.00  0.00     0.046 H 
ENDBRANCH   1  14
BRANCH   2  18
ATOM     18  C   UNL     1     -47.602  29.358  23.361  1.00  0.00     0.036 C 
ATOM     19  H   UNL     1     -47.564  29.516  22.277  1.00  0.00     0.049 H 
ATOM     20  H   UNL     1     -48.586  28.937  23.594  1.00  0.00     0.049 H 
BRANCH  18  21
ATOM     21  N   UNL     1     -46.536  28.464  23.798  1.00  0.00    -0.311 NA
ATOM     22  H   UNL     1     -45.976  28.937  24.505  1.00  0.00     0.123 HD
BRANCH  21  23
ATOM     23  C   UNL     1     -47.027  27.183  24.305  1.00  0.00    -0.002 C 
ATOM     24  H   UNL     1     -46.176  26.667  24.766  1.00  0.00     0.043 H 
ATOM     25  H   UNL     1     -47.351  26.546  23.473  1.00  0.00     0.043 H 
BRANCH  23  26
ATOM     26  C   UNL     1     -48.160  27.336  25.323  1.00  0.00    -0.029 C 
ATOM     27  C   UNL     1     -47.871  26.904  26.788  1.00  0.00    -0.049 C 
ATOM     28  C   UNL     1     -49.221  26.204  25.289  1.00  0.00    -0.049 C 
ATOM     29  H   UNL     1     -48.628  28.326  25.253  1.00  0.00     0.032 H 
ATOM     30  C   UNL     1     -48.464  25.525  26.445  1.00  0.00    -0.053 C 
ATOM     31  H   UNL     1     -48.459  27.460  27.528  1.00  0.00     0.027 H 
ATOM     32  H   UNL     1     -46.825  26.898  27.106  1.00  0.00     0.027 H 
ATOM     33  H   UNL     1     -49.288  25.624  24.364  1.00  0.00     0.027 H 
ATOM     34  H   UNL     1     -50.227  26.540  25.566  1.00  0.00     0.027 H 
ATOM     35  H   UNL     1     -49.088  25.071  27.219  1.00  0.00     0.027 H 
ATOM     36  H   UNL     1     -47.718  24.792  26.116  1.00  0.00     0.027 H 
ENDBRANCH  23  26
ENDBRANCH  21  23
ENDBRANCH  18  21
ENDBRANCH   2  18
BRANCH   7  37
ATOM     37  C   UNL     1     -48.676  35.702  27.235  1.00  0.00     0.043 C 
ATOM     38  H   UNL     1     -49.509  36.126  26.663  1.00  0.00     0.054 H 
ATOM     39  H   UNL     1     -49.094  35.289  28.159  1.00  0.00     0.054 H 
BRANCH  37  40
ATOM     40  N   UNL     1     -47.762  36.778  27.523  1.00  0.00    -0.347 N 
ATOM     41  C   UNL     1     -46.960  36.793  28.636  1.00  0.00     0.270 C 
ATOM     42  H   UNL     1     -47.511  37.427  26.784  1.00  0.00     0.164 HD
ATOM     43  O   UNL     1     -47.038  35.993  29.561  1.00  0.00    -0.268 OA
BRANCH  41  44
ATOM     44  C   UNL     1     -45.944  37.910  28.595  1.00  0.00     0.136 A 
ATOM     45  C   UNL     1     -45.065  37.951  29.599  1.00  0.00     0.035 A 
ATOM     46  N   UNL     1     -45.978  38.799  27.544  1.00  0.00    -0.225 NA
ATOM     47  C   UNL     1     -44.055  39.015  29.596  1.00  0.00     0.258 A 
ATOM     48  H   UNL     1     -45.048  37.245  30.419  1.00  0.00     0.071 H 
ATOM     49  C   UNL     1     -45.079  39.736  27.543  1.00  0.00     0.140 A 
ATOM     50  O   UNL     1     -43.244  39.065  30.520  1.00  0.00    -0.269 OA
ATOM     51  N   UNL     1     -44.107  39.895  28.524  1.00  0.00    -0.268 N 
ATOM     52  C   UNL     1     -45.073  40.717  26.421  1.00  0.00    -0.019 A 
ATOM     53  C   UNL     1     -43.179  40.928  28.450  1.00  0.00     0.014 A 
ATOM     54  C   UNL     1     -44.159  41.695  26.394  1.00  0.00    -0.057 A 
ATOM     55  H   UNL     1     -45.825  40.600  25.651  1.00  0.00     0.066 H 
ATOM     56  C   UNL     1     -43.180  41.807  27.441  1.00  0.00    -0.045 A 
ATOM     57  H   UNL     1     -42.447  40.993  29.252  1.00  0.00     0.082 H 
ATOM     58  H   UNL     1     -44.139  42.419  25.585  1.00  0.00     0.062 H 
ATOM     59  H   UNL     1     -42.450  42.609  27.393  1.00  0.00     0.064 H 
ENDBRANCH  41  44
ENDBRANCH  37  40
ENDBRANCH   7  37
TORSDOF 8
ENDMDL
MODEL 2
REMARK VINA RESULT:      -9.7      2.844     11.162
REMARK SMILES Cn1c(CNCC2CCC2)cc2ccc(CNC(=O)c3cc(=O)n4ccccc4n3)cc21
REMARK SMILES IDX 2 1 3 2 11 3 12 4 13 5 14 6 15 7 31 8 32 9 1 14 4 18 5 21
REMARK SMILES IDX 6 23 7 26 8 27 10 28 9 30 16 37 17 40 18 41 19 43 20 44
REMARK SMILES IDX 21 45 30 46 22 47 29 49 23 50 24 51 28 52 25 53 27 54 26 56
REMARK H PARENT 11 10 13 11 14 12 31 13 1 15 1 16 1 17 4 19 4 20 5 22 6 24
REMARK H PARENT 6 25 7 29 8 31 8 32 10 33 10 34 9 35 9 36 16 38 16 39 17 42
REMARK H PARENT 21 48 28 55 25 57 27 58 26 59
REMARK Flexibility Score: inf
ROOT
ATOM      1  N   UNL     1     -47.415  37.482  27.883  1.00  0.00    -0.346 N 
ATOM      2  C   UNL     1     -46.121  37.809  28.238  1.00  0.00     0.032 A 
ATOM      3  C   UNL     1     -45.331  36.714  27.939  1.00  0.00    -0.032 A 
ATOM      4  C   UNL     1     -46.162  35.694  27.408  1.00  0.00    -0.000 A 
ATOM      5  C   UNL     1     -45.918  34.385  26.949  1.00  0.00    -0.052 A 
ATOM      6  C   UNL     1     -46.984  33.607  26.486  1.00  0.00    -0.057 A 
ATOM      7  C   UNL     1     -48.289  34.109  26.469  1.00  0.00    -0.027 A 
ATOM      8  C   UNL     1     -48.545  35.412  26.932  1.00  0.00    -0.033 A 
ATOM      9  C   UNL     1     -47.466  36.189  27.389  1.00  0.00     0.048 A 
ATOM     10  H   UNL     1     -44.263  36.650  28.096  1.00  0.00     0.065 H 
ATOM     11  H   UNL     1     -44.911  33.978  26.960  1.00  0.00     0.063 H 
ATOM     12  H   UNL     1     -46.788  32.592  26.143  1.00  0.00     0.063 H 
ATOM     13  H   UNL     1     -49.557  35.806  26.937  1.00  0.00     0.065 H 
ENDROOT
BRANCH   1  14
ATOM     14  C   UNL     1     -48.568  38.346  28.035  1.00  0.00     0.012 C 
ATOM     15  H   UNL     1     -48.362  39.283  27.512  1.00  0.00     0.046 H 
ATOM     16  H   UNL     1     -49.454  37.859  27.622  1.00  0.00     0.046 H 
ATOM     17  H   UNL     1     -48.746  38.533  29.096  1.00  0.00     0.046 H 
ENDBRANCH   1  14
BRANCH   2  18
ATOM     18  C   UNL     1     -45.717  39.122  28.827  1.00  0.00     0.036 C 
ATOM     19  H   UNL     1     -44.874  38.974  29.512  1.00  0.00     0.049 H 
ATOM     20  H   UNL     1     -46.552  39.513  29.418  1.00  0.00     0.049 H 
BRANCH  18  21
ATOM     21  N   UNL     1     -45.363  40.040  27.752  1.00  0.00    -0.311 NA
ATOM     22  H   UNL     1     -45.764  40.955  27.951  1.00  0.00     0.123 HD
BRANCH  21  23
ATOM     23  C   UNL     1     -43.920  40.149  27.535  1.00  0.00    -0.002 C 
ATOM     24  H   UNL     1     -43.731  39.928  26.478  1.00  0.00     0.043 H 
ATOM     25  H   UNL     1     -43.393  39.373  28.104  1.00  0.00     0.043 H 
BRANCH  23  26
ATOM     26  C   UNL     1     -43.364  41.530  27.889  1.00  0.00    -0.029 C 
ATOM     27  C   UNL     1     -42.240  42.104  26.982  1.00  0.00    -0.049 C 
ATOM     28  C   UNL     1     -42.321  41.535  29.039  1.00  0.00    -0.049 C 
ATOM     29  H   UNL     1     -44.171  42.249  28.077  1.00  0.00     0.032 H 
ATOM     30  C   UNL     1     -41.214  41.519  27.970  1.00  0.00    -0.053 C 
ATOM     31  H   UNL     1     -42.232  43.200  26.942  1.00  0.00     0.027 H 
ATOM     32  H   UNL     1     -42.180  41.718  25.962  1.00  0.00     0.027 H 
ATOM     33  H   UNL     1     -42.336  40.678  29.717  1.00  0.00     0.027 H 
ATOM     34  H   UNL     1     -42.336  42.455  29.636  1.00  0.00     0.027 H 
ATOM     35  H   UNL     1     -40.344  42.147  28.178  1.00  0.00     0.027 H 
ATOM     36  H   UNL     1     -40.869  40.513  27.705  1.00  0.00     0.027 H 
ENDBRANCH  23  26
ENDBRANCH  21  23
ENDBRANCH  18  21
ENDBRANCH   2  18
BRANCH   7  37
ATOM     37  C   UNL     1     -49.424  33.237  25.991  1.00  0.00     0.043 C 
ATOM     38  H   UNL     1     -50.251  33.258  26.711  1.00  0.00     0.054 H 
ATOM     39  H   UNL     1     -49.814  33.609  25.038  1.00  0.00     0.054 H 
BRANCH  37  40
ATOM     40  N   UNL     1     -48.997  31.866  25.869  1.00  0.00    -0.347 N 
ATOM     41  C   UNL     1     -49.249  31.107  24.754  1.00  0.00     0.270 C 
ATOM     42  H   UNL     1     -48.286  31.510  26.499  1.00  0.00     0.164 HD
ATOM     43  O   UNL     1     -49.974  31.449  23.828  1.00  0.00    -0.268 OA
BRANCH  41  44
ATOM     44  C   UNL     1     -48.513  29.788  24.780  1.00  0.00     0.136 A 
ATOM     45  C   UNL     1     -47.506  29.652  23.915  1.00  0.00     0.035 A 
ATOM     46  N   UNL     1     -48.911  28.825  25.680  1.00  0.00    -0.225 NA
ATOM     47  C   UNL     1     -46.758  28.389  23.910  1.00  0.00     0.258 A 
ATOM     48  H   UNL     1     -47.202  30.418  23.214  1.00  0.00     0.071 H 
ATOM     49  C   UNL     1     -48.243  27.712  25.676  1.00  0.00     0.140 A 
ATOM     50  O   UNL     1     -45.832  28.252  23.113  1.00  0.00    -0.269 OA
ATOM     51  N   UNL     1     -47.175  27.437  24.830  1.00  0.00    -0.268 N 
ATOM     52  C   UNL     1     -48.634  26.642  26.639  1.00  0.00    -0.019 A 
ATOM     53  C   UNL     1     -46.512  26.216  24.888  1.00  0.00     0.014 A 
ATOM     54  C   UNL     1     -47.965  25.482  26.656  1.00  0.00    -0.057 A 
ATOM     55  H   UNL     1     -49.463  26.847  27.303  1.00  0.00     0.066 H 
ATOM     56  C   UNL     1     -46.869  25.260  25.753  1.00  0.00    -0.045 A 
ATOM     57  H   UNL     1     -45.685  26.069  24.196  1.00  0.00     0.082 H 
ATOM     58  H   UNL     1     -48.235  24.692  27.350  1.00  0.00     0.062 H 
ATOM     59  H   UNL     1     -46.344  24.310  25.790  1.00  0.00     0.064 H 
ENDBRANCH  41  44
ENDBRANCH  37  40
ENDBRANCH   7  37
TORSDOF 8
ENDMDL
MODEL 3
REMARK VINA RESULT:      -9.6      1.654      2.195
REMARK SMILES Cn1c(CNCC2CCC2)cc2ccc(CNC(=O)c3cc(=O)n4ccccc4n3)cc21
REMARK SMILES IDX 2 1 3 2 11 3 12 4 13 5 14 6 15 7 31 8 32 9 1 14 4 18 5 21
REMARK SMILES IDX 6 23 7 26 8 27 10 28 9 30 16 37 17 40 18 41 19 43 20 44
REMARK SMILES IDX 21 45 30 46 22 47 29 49 23 50 24 51 28 52 25 53 27 54 26 56
REMARK H PARENT 11 10 13 11 14 12 31 13 1 15 1 16 1 17 4 19 4 20 5 22 6 24
REMARK H PARENT 6 25 7 29 8 31 8 32 10 33 10 34 9 35 9 36 16 38 16 39 17 42
REMARK H PARENT 21 48 28 55 25 57 27 58 26 59
REMARK Flexibility Score: inf
ROOT
ATOM      1  N   UNL     1     -48.543  32.265  25.059  1.00  0.00    -0.346 N 
ATOM      2  C   UNL     1     -47.539  31.539  24.450  1.00  0.00     0.032 A 
ATOM      3  C   UNL     1     -46.342  32.146  24.785  1.00  0.00    -0.032 A 
ATOM      4  C   UNL     1     -46.623  33.273  25.598  1.00  0.00    -0.000 A 
ATOM      5  C   UNL     1     -45.817  34.252  26.212  1.00  0.00    -0.052 A 
ATOM      6  C   UNL     1     -46.419  35.270  26.960  1.00  0.00    -0.057 A 
ATOM      7  C   UNL     1     -47.808  35.329  27.111  1.00  0.00    -0.027 A 
ATOM      8  C   UNL     1     -48.622  34.362  26.496  1.00  0.00    -0.033 A 
ATOM      9  C   UNL     1     -48.008  33.339  25.752  1.00  0.00     0.048 A 
ATOM     10  H   UNL     1     -45.362  31.816  24.468  1.00  0.00     0.065 H 
ATOM     11  H   UNL     1     -44.738  34.223  26.102  1.00  0.00     0.063 H 
ATOM     12  H   UNL     1     -45.789  36.029  27.423  1.00  0.00     0.063 H 
ATOM     13  H   UNL     1     -49.702  34.408  26.594  1.00  0.00     0.065 H 
ENDROOT
BRANCH   1  14
ATOM     14  C   UNL     1     -49.960  31.978  24.963  1.00  0.00     0.012 C 
ATOM     15  H   UNL     1     -50.438  32.314  25.887  1.00  0.00     0.046 H 
ATOM     16  H   UNL     1     -50.386  32.492  24.099  1.00  0.00     0.046 H 
ATOM     17  H   UNL     1     -50.106  30.904  24.827  1.00  0.00     0.046 H 
ENDBRANCH   1  14
BRANCH   2  18
ATOM     18  C   UNL     1     -47.771  30.330  23.604  1.00  0.00     0.036 C 
ATOM     19  H   UNL     1     -47.365  30.500  22.600  1.00  0.00     0.049 H 
ATOM     20  H   UNL     1     -48.850  30.177  23.497  1.00  0.00     0.049 H 
BRANCH  18  21
ATOM     21  N   UNL     1     -47.141  29.176  24.234  1.00  0.00    -0.311 NA
ATOM     22  H   UNL     1     -46.449  29.502  24.906  1.00  0.00     0.123 HD
BRANCH  21  23
ATOM     23  C   UNL     1     -48.098  28.276  24.880  1.00  0.00    -0.002 C 
ATOM     24  H   UNL     1     -49.081  28.475  24.438  1.00  0.00     0.043 H 
ATOM     25  H   UNL     1     -48.190  28.524  25.944  1.00  0.00     0.043 H 
BRANCH  23  26
ATOM     26  C   UNL     1     -47.737  26.798  24.713  1.00  0.00    -0.029 C 
ATOM     27  C   UNL     1     -48.133  25.829  25.861  1.00  0.00    -0.049 C 
ATOM     28  C   UNL     1     -46.261  26.449  25.040  1.00  0.00    -0.049 C 
ATOM     29  H   UNL     1     -48.026  26.428  23.721  1.00  0.00     0.032 H 
ATOM     30  C   UNL     1     -46.723  26.031  26.448  1.00  0.00    -0.053 C 
ATOM     31  H   UNL     1     -48.320  24.804  25.518  1.00  0.00     0.027 H 
ATOM     32  H   UNL     1     -48.957  26.137  26.508  1.00  0.00     0.027 H 
ATOM     33  H   UNL     1     -45.543  27.273  25.005  1.00  0.00     0.027 H 
ATOM     34  H   UNL     1     -45.867  25.616  24.446  1.00  0.00     0.027 H 
ATOM     35  H   UNL     1     -46.248  25.136  26.858  1.00  0.00     0.027 H 
ATOM     36  H   UNL     1     -46.665  26.835  27.191  1.00  0.00     0.027 H 
ENDBRANCH  23  26
ENDBRANCH  21  23
ENDBRANCH  18  21
ENDBRANCH   2  18
BRANCH   7  37
ATOM     37  C   UNL     1     -48.430  36.456  27.899  1.00  0.00     0.043 C 
ATOM     38  H   UNL     1     -49.480  36.586  27.615  1.00  0.00     0.054 H 
ATOM     39  H   UNL     1     -48.410  36.226  28.970  1.00  0.00     0.054 H 
BRANCH  37  40
ATOM     40  N   UNL     1     -47.756  37.700  27.629  1.00  0.00    -0.347 N 
ATOM     41  C   UNL     1     -46.801  38.224  28.465  1.00  0.00     0.270 C 
ATOM     42  H   UNL     1     -47.792  38.092  26.694  1.00  0.00     0.164 HD
ATOM     43  O   UNL     1     -46.532  37.783  29.575  1.00  0.00    -0.268 OA
BRANCH  41  44
ATOM     44  C   UNL     1     -46.094  39.411  27.854  1.00  0.00     0.136 A 
ATOM     45  C   UNL     1     -46.828  40.198  27.064  1.00  0.00     0.035 A 
ATOM     46  N   UNL     1     -44.764  39.612  28.146  1.00  0.00    -0.225 NA
ATOM     47  C   UNL     1     -46.184  41.367  26.455  1.00  0.00     0.258 A 
ATOM     48  H   UNL     1     -47.874  40.029  26.844  1.00  0.00     0.071 H 
ATOM     49  C   UNL     1     -44.199  40.650  27.609  1.00  0.00     0.140 A 
ATOM     50  O   UNL     1     -46.850  42.095  25.721  1.00  0.00    -0.269 OA
ATOM     51  N   UNL     1     -44.845  41.551  26.769  1.00  0.00    -0.268 N 
ATOM     52  C   UNL     1     -42.761  40.912  27.903  1.00  0.00    -0.019 A 
ATOM     53  C   UNL     1     -44.166  42.640  26.233  1.00  0.00     0.014 A 
ATOM     54  C   UNL     1     -42.152  41.974  27.362  1.00  0.00    -0.057 A 
ATOM     55  H   UNL     1     -42.251  40.218  28.558  1.00  0.00     0.066 H 
ATOM     56  C   UNL     1     -42.875  42.868  26.498  1.00  0.00    -0.045 A 
ATOM     57  H   UNL     1     -44.733  43.303  25.583  1.00  0.00     0.082 H 
ATOM     58  H   UNL     1     -41.106  42.182  27.564  1.00  0.00     0.062 H 
ATOM     59  H   UNL     1     -42.356  43.722  26.074  1.00  0.00     0.064 H 
ENDBRANCH  41  44
ENDBRANCH  37  40
ENDBRANCH   7  37
TORSDOF 8
ENDMDL
MODEL 4
REMARK VINA RESULT:      -9.4      2.767     11.037
REMARK SMILES Cn1c(CNCC2CCC2)cc2ccc(CNC(=O)c3cc(=O)n4ccccc4n3)cc21
REMARK SMILES IDX 2 1 3 2 11 3 12 4 13 5 14 6 15 7 31 8 32 9 1 14 4 18 5 21
REMARK SMILES IDX 6 23 7 26 8 27 10 28 9 30 16 37 17 40 18 41 19 43 20 44
REMARK SMILES IDX 21 45 30 46 22 47 29 49 23 50 24 51 28 52 25 53 27 54 26 56
REMARK H PARENT 11 10 13 11 14 12 31 13 1 15 1 16 1 17 4 19 4 20 5 22 6 24
REMARK H PARENT 6 25 7 29 8 31 8 32 10 33 10 34 9 35 9 36 16 38 16 39 17 42
REMARK H PARENT 21 48 28 55 25 57 27 58 26 59
REMARK Flexibility Score: inf
ROOT
ATOM      1  N   UNL     1     -43.987  39.651  28.752  1.00  0.00    -0.346 N 
ATOM      2  C   UNL     1     -43.804  40.763  27.953  1.00  0.00     0.032 A 
ATOM      3  C   UNL     1     -44.724  40.677  26.924  1.00  0.00    -0.032 A 
ATOM      4  C   UNL     1     -45.469  39.481  27.088  1.00  0.00    -0.000 A 
ATOM      5  C   UNL     1     -46.509  38.879  26.354  1.00  0.00    -0.052 A 
ATOM      6  C   UNL     1     -47.037  37.656  26.784  1.00  0.00    -0.057 A 
ATOM      7  C   UNL     1     -46.551  37.025  27.933  1.00  0.00    -0.027 A 
ATOM      8  C   UNL     1     -45.507  37.614  28.668  1.00  0.00    -0.033 A 
ATOM      9  C   UNL     1     -44.988  38.846  28.233  1.00  0.00     0.048 A 
ATOM     10  H   UNL     1     -44.842  41.398  26.127  1.00  0.00     0.065 H 
ATOM     11  H   UNL     1     -46.896  39.353  25.457  1.00  0.00     0.063 H 
ATOM     12  H   UNL     1     -47.834  37.191  26.205  1.00  0.00     0.063 H 
ATOM     13  H   UNL     1     -45.112  37.125  29.553  1.00  0.00     0.065 H 
ENDROOT
BRANCH   1  14
ATOM     14  C   UNL     1     -43.223  39.341  29.942  1.00  0.00     0.012 C 
ATOM     15  H   UNL     1     -43.459  40.089  30.702  1.00  0.00     0.046 H 
ATOM     16  H   UNL     1     -43.475  38.338  30.295  1.00  0.00     0.046 H 
ATOM     17  H   UNL     1     -42.156  39.361  29.707  1.00  0.00     0.046 H 
ENDBRANCH   1  14
BRANCH   2  18
ATOM     18  C   UNL     1     -42.786  41.826  28.213  1.00  0.00     0.036 C 
ATOM     19  H   UNL     1     -41.786  41.438  27.992  1.00  0.00     0.049 H 
ATOM     20  H   UNL     1     -42.809  42.081  29.278  1.00  0.00     0.049 H 
BRANCH  18  21
ATOM     21  N   UNL     1     -43.090  42.991  27.391  1.00  0.00    -0.311 NA
ATOM     22  H   UNL     1     -43.016  43.830  27.964  1.00  0.00     0.123 HD
BRANCH  21  23
ATOM     23  C   UNL     1     -42.237  43.101  26.207  1.00  0.00    -0.002 C 
ATOM     24  H   UNL     1     -42.146  42.097  25.777  1.00  0.00     0.043 H 
ATOM     25  H   UNL     1     -41.223  43.397  26.499  1.00  0.00     0.043 H 
BRANCH  23  26
ATOM     26  C   UNL     1     -42.789  44.072  25.160  1.00  0.00    -0.029 C 
ATOM     27  C   UNL     1     -44.328  44.100  24.948  1.00  0.00    -0.049 C 
ATOM     28  C   UNL     1     -42.681  43.574  23.693  1.00  0.00    -0.049 C 
ATOM     29  H   UNL     1     -42.354  45.072  25.276  1.00  0.00     0.032 H 
ATOM     30  C   UNL     1     -44.138  43.087  23.804  1.00  0.00    -0.053 C 
ATOM     31  H   UNL     1     -44.702  45.074  24.611  1.00  0.00     0.027 H 
ATOM     32  H   UNL     1     -44.949  43.756  25.779  1.00  0.00     0.027 H 
ATOM     33  H   UNL     1     -41.938  42.798  23.493  1.00  0.00     0.027 H 
ATOM     34  H   UNL     1     -42.547  44.384  22.967  1.00  0.00     0.027 H 
ATOM     35  H   UNL     1     -44.760  43.249  22.919  1.00  0.00     0.027 H 
ATOM     36  H   UNL     1     -44.233  42.041  24.118  1.00  0.00     0.027 H 
ENDBRANCH  23  26
ENDBRANCH  21  23
ENDBRANCH  18  21
ENDBRANCH   2  18
BRANCH   7  37
ATOM     37  C   UNL     1     -47.119  35.692  28.356  1.00  0.00     0.043 C 
ATOM     38  H   UNL     1     -46.442  35.194  29.059  1.00  0.00     0.054 H 
ATOM     39  H   UNL     1     -48.075  35.834  28.871  1.00  0.00     0.054 H 
BRANCH  37  40
ATOM     40  N   UNL     1     -47.275  34.820  27.220  1.00  0.00    -0.347 N 
ATOM     41  C   UNL     1     -46.777  33.542  27.191  1.00  0.00     0.270 C 
ATOM     42  H   UNL     1     -47.969  35.044  26.514  1.00  0.00     0.164 HD
ATOM     43  O   UNL     1     -46.037  33.064  28.042  1.00  0.00    -0.268 OA
BRANCH  41  44
ATOM     44  C   UNL     1     -47.260  32.766  25.988  1.00  0.00     0.136 A 
ATOM     45  C   UNL     1     -48.582  32.653  25.845  1.00  0.00     0.035 A 
ATOM     46  N   UNL     1     -46.327  32.236  25.125  1.00  0.00    -0.225 NA
ATOM     47  C   UNL     1     -49.095  31.912  24.687  1.00  0.00     0.258 A 
ATOM     48  H   UNL     1     -49.304  33.075  26.531  1.00  0.00     0.071 H 
ATOM     49  C   UNL     1     -46.786  31.586  24.098  1.00  0.00     0.140 A 
ATOM     50  O   UNL     1     -50.312  31.798  24.549  1.00  0.00    -0.269 OA
ATOM     51  N   UNL     1     -48.137  31.393  23.828  1.00  0.00    -0.268 N 
ATOM     52  C   UNL     1     -45.814  31.001  23.131  1.00  0.00    -0.019 A 
ATOM     53  C   UNL     1     -48.547  30.683  22.705  1.00  0.00     0.014 A 
ATOM     54  C   UNL     1     -46.258  30.324  22.065  1.00  0.00    -0.057 A 
ATOM     55  H   UNL     1     -44.761  31.148  23.332  1.00  0.00     0.066 H 
ATOM     56  C   UNL     1     -47.669  30.158  21.842  1.00  0.00    -0.045 A 
ATOM     57  H   UNL     1     -49.618  30.570  22.556  1.00  0.00     0.082 H 
ATOM     58  H   UNL     1     -45.565  29.891  21.350  1.00  0.00     0.062 H 
ATOM     59  H   UNL     1     -48.000  29.606  20.969  1.00  0.00     0.064 H 
ENDBRANCH  41  44
ENDBRANCH  37  40
ENDBRANCH   7  37
TORSDOF 8
ENDMDL
MODEL 5
REMARK VINA RESULT:      -9.2      1.987      2.737
REMARK SMILES Cn1c(CNCC2CCC2)cc2ccc(CNC(=O)c3cc(=O)n4ccccc4n3)cc21
REMARK SMILES IDX 2 1 3 2 11 3 12 4 13 5 14 6 15 7 31 8 32 9 1 14 4 18 5 21
REMARK SMILES IDX 6 23 7 26 8 27 10 28 9 30 16 37 17 40 18 41 19 43 20 44
REMARK SMILES IDX 21 45 30 46 22 47 29 49 23 50 24 51 28 52 25 53 27 54 26 56
REMARK H PARENT 11 10 13 11 14 12 31 13 1 15 1 16 1 17 4 19 4 20 5 22 6 24
REMARK H PARENT 6 25 7 29 8 31 8 32 10 33 10 34 9 35 9 36 16 38 16 39 17 42
REMARK H PARENT 21 48 28 55 25 57 27 58 26 59
REMARK Flexibility Score: inf
ROOT
ATOM      1  N   UNL     1     -48.831  33.120  26.099  1.00  0.00    -0.346 N 
ATOM      2  C   UNL     1     -48.051  32.008  25.847  1.00  0.00     0.032 A 
ATOM      3  C   UNL     1     -46.753  32.340  26.190  1.00  0.00    -0.032 A 
ATOM      4  C   UNL     1     -46.738  33.684  26.642  1.00  0.00    -0.000 A 
ATOM      5  C   UNL     1     -45.720  34.542  27.099  1.00  0.00    -0.052 A 
ATOM      6  C   UNL     1     -46.038  35.854  27.469  1.00  0.00    -0.057 A 
ATOM      7  C   UNL     1     -47.352  36.325  27.395  1.00  0.00    -0.027 A 
ATOM      8  C   UNL     1     -48.375  35.479  26.931  1.00  0.00    -0.033 A 
ATOM      9  C   UNL     1     -48.048  34.161  26.569  1.00  0.00     0.048 A 
ATOM     10  H   UNL     1     -45.898  31.682  26.114  1.00  0.00     0.065 H 
ATOM     11  H   UNL     1     -44.693  34.194  27.160  1.00  0.00     0.063 H 
ATOM     12  H   UNL     1     -45.243  36.514  27.812  1.00  0.00     0.063 H 
ATOM     13  H   UNL     1     -49.396  35.840  26.855  1.00  0.00     0.065 H 
ENDROOT
BRANCH   1  14
ATOM     14  C   UNL     1     -50.259  33.209  25.872  1.00  0.00     0.012 C 
ATOM     15  H   UNL     1     -50.433  33.189  24.793  1.00  0.00     0.046 H 
ATOM     16  H   UNL     1     -50.766  32.375  26.361  1.00  0.00     0.046 H 
ATOM     17  H   UNL     1     -50.639  34.138  26.302  1.00  0.00     0.046 H 
ENDBRANCH   1  14
BRANCH   2  18
ATOM     18  C   UNL     1     -48.577  30.717  25.310  1.00  0.00     0.036 C 
ATOM     19  H   UNL     1     -48.082  30.485  24.360  1.00  0.00     0.049 H 
ATOM     20  H   UNL     1     -49.646  30.833  25.100  1.00  0.00     0.049 H 
BRANCH  18  21
ATOM     21  N   UNL     1     -48.349  29.662  26.290  1.00  0.00    -0.311 NA
ATOM     22  H   UNL     1     -48.977  29.802  27.080  1.00  0.00     0.123 HD
BRANCH  21  23
ATOM     23  C   UNL     1     -48.511  28.316  25.739  1.00  0.00    -0.002 C 
ATOM     24  H   UNL     1     -47.721  28.172  24.993  1.00  0.00     0.043 H 
ATOM     25  H   UNL     1     -49.458  28.244  25.192  1.00  0.00     0.043 H 
BRANCH  23  26
ATOM     26  C   UNL     1     -48.432  27.219  26.804  1.00  0.00    -0.029 C 
ATOM     27  C   UNL     1     -47.088  26.454  26.947  1.00  0.00    -0.049 C 
ATOM     28  C   UNL     1     -49.062  25.864  26.387  1.00  0.00    -0.049 C 
ATOM     29  H   UNL     1     -48.831  27.568  27.765  1.00  0.00     0.032 H 
ATOM     30  C   UNL     1     -47.653  25.385  25.993  1.00  0.00    -0.053 C 
ATOM     31  H   UNL     1     -46.907  26.081  27.962  1.00  0.00     0.027 H 
ATOM     32  H   UNL     1     -46.187  26.964  26.597  1.00  0.00     0.027 H 
ATOM     33  H   UNL     1     -49.795  25.893  25.576  1.00  0.00     0.027 H 
ATOM     34  H   UNL     1     -49.492  25.305  27.228  1.00  0.00     0.027 H 
ATOM     35  H   UNL     1     -47.415  24.349  26.247  1.00  0.00     0.027 H 
ATOM     36  H   UNL     1     -47.405  25.558  24.939  1.00  0.00     0.027 H 
ENDBRANCH  23  26
ENDBRANCH  21  23
ENDBRANCH  18  21
ENDBRANCH   2  18
BRANCH   7  37
ATOM     37  C   UNL     1     -47.661  37.754  27.772  1.00  0.00     0.043 C 
ATOM     38  H   UNL     1     -48.595  38.079  27.302  1.00  0.00     0.054 H 
ATOM     39  H   UNL     1     -47.796  37.839  28.855  1.00  0.00     0.054 H 
BRANCH  37  40
ATOM     40  N   UNL     1     -46.620  38.638  27.314  1.00  0.00    -0.347 N 
ATOM     41  C   UNL     1     -46.824  39.978  27.103  1.00  0.00     0.270 C 
ATOM     42  H   UNL     1     -45.652  38.340  27.377  1.00  0.00     0.164 HD
ATOM     43  O   UNL     1     -47.918  40.528  27.131  1.00  0.00    -0.268 OA
BRANCH  41  44
ATOM     44  C   UNL     1     -45.535  40.720  26.841  1.00  0.00     0.136 A 
ATOM     45  C   UNL     1     -44.557  40.545  27.733  1.00  0.00     0.035 A 
ATOM     46  N   UNL     1     -45.442  41.514  25.720  1.00  0.00    -0.225 NA
ATOM     47  C   UNL     1     -43.284  41.242  27.515  1.00  0.00     0.258 A 
ATOM     48  H   UNL     1     -44.642  39.917  28.610  1.00  0.00     0.071 H 
ATOM     49  C   UNL     1     -44.312  42.124  25.529  1.00  0.00     0.140 A 
ATOM     50  O   UNL     1     -42.378  41.091  28.334  1.00  0.00    -0.269 OA
ATOM     51  N   UNL     1     -43.214  42.030  26.376  1.00  0.00    -0.268 N 
ATOM     52  C   UNL     1     -44.163  42.988  24.323  1.00  0.00    -0.019 A 
ATOM     53  C   UNL     1     -42.037  42.719  26.099  1.00  0.00     0.014 A 
ATOM     54  C   UNL     1     -43.010  43.632  24.100  1.00  0.00    -0.057 A 
ATOM     55  H   UNL     1     -45.013  43.066  23.656  1.00  0.00     0.066 H 
ATOM     56  C   UNL     1     -41.911  43.494  25.017  1.00  0.00    -0.045 A 
ATOM     57  H   UNL     1     -41.218  42.600  26.805  1.00  0.00     0.082 H 
ATOM     58  H   UNL     1     -42.883  44.265  23.228  1.00  0.00     0.062 H 
ATOM     59  H   UNL     1     -40.988  44.027  24.811  1.00  0.00     0.064 H 
ENDBRANCH  41  44
ENDBRANCH  37  40
ENDBRANCH   7  37
TORSDOF 8
ENDMDL
MODEL 6
REMARK VINA RESULT:      -9.2      4.109      8.218
REMARK SMILES Cn1c(CNCC2CCC2)cc2ccc(CNC(=O)c3cc(=O)n4ccccc4n3)cc21
REMARK SMILES IDX 2 1 3 2 11 3 12 4 13 5 14 6 15 7 31 8 32 9 1 14 4 18 5 21
REMARK SMILES IDX 6 23 7 26 8 27 10 28 9 30 16 37 17 40 18 41 19 43 20 44
REMARK SMILES IDX 21 45 30 46 22 47 29 49 23 50 24 51 28 52 25 53 27 54 26 56
REMARK H PARENT 11 10 13 11 14 12 31 13 1 15 1 16 1 17 4 19 4 20 5 22 6 24
REMARK H PARENT 6 25 7 29 8 31 8 32 10 33 10 34 9 35 9 36 16 38 16 39 17 42
REMARK H PARENT 21 48 28 55 25 57 27 58 26 59
REMARK Flexibility Score: inf
ROOT
ATOM      1  N   UNL     1     -45.705  38.869  27.888  1.00  0.00    -0.346 N 
ATOM      2  C   UNL     1     -46.071  37.858  28.755  1.00  0.00     0.032 A 
ATOM      3  C   UNL     1     -45.153  37.863  29.790  1.00  0.00    -0.032 A 
ATOM      4  C   UNL     1     -44.201  38.884  29.540  1.00  0.00    -0.000 A 
ATOM      5  C   UNL     1     -43.059  39.334  30.230  1.00  0.00    -0.052 A 
ATOM      6  C   UNL     1     -42.303  40.385  29.698  1.00  0.00    -0.057 A 
ATOM      7  C   UNL     1     -42.665  40.997  28.495  1.00  0.00    -0.027 A 
ATOM      8  C   UNL     1     -43.799  40.550  27.794  1.00  0.00    -0.033 A 
ATOM      9  C   UNL     1     -44.557  39.498  28.339  1.00  0.00     0.048 A 
ATOM     10  H   UNL     1     -45.162  37.192  30.638  1.00  0.00     0.065 H 
ATOM     11  H   UNL     1     -42.761  38.868  31.164  1.00  0.00     0.063 H 
ATOM     12  H   UNL     1     -41.415  40.721  30.233  1.00  0.00     0.063 H 
ATOM     13  H   UNL     1     -44.080  41.008  26.851  1.00  0.00     0.065 H 
ENDROOT
BRANCH   1  14
ATOM     14  C   UNL     1     -46.394  39.208  26.660  1.00  0.00     0.012 C 
ATOM     15  H   UNL     1     -46.656  38.279  26.149  1.00  0.00     0.046 H 
ATOM     16  H   UNL     1     -47.290  39.791  26.885  1.00  0.00     0.046 H 
ATOM     17  H   UNL     1     -45.741  39.818  26.031  1.00  0.00     0.046 H 
ENDBRANCH   1  14
BRANCH   2  18
ATOM     18  C   UNL     1     -47.251  36.965  28.554  1.00  0.00     0.036 C 
ATOM     19  H   UNL     1     -47.551  36.983  27.500  1.00  0.00     0.049 H 
ATOM     20  H   UNL     1     -48.091  37.356  29.138  1.00  0.00     0.049 H 
BRANCH  18  21
ATOM     21  N   UNL     1     -46.907  35.613  28.978  1.00  0.00    -0.311 NA
ATOM     22  H   UNL     1     -47.748  35.145  29.310  1.00  0.00     0.123 HD
BRANCH  21  23
ATOM     23  C   UNL     1     -46.262  34.825  27.928  1.00  0.00    -0.002 C 
ATOM     24  H   UNL     1     -46.236  33.784  28.272  1.00  0.00     0.043 H 
ATOM     25  H   UNL     1     -45.215  35.130  27.815  1.00  0.00     0.043 H 
BRANCH  23  26
ATOM     26  C   UNL     1     -46.985  34.914  26.582  1.00  0.00    -0.029 C 
ATOM     27  C   UNL     1     -48.327  34.146  26.437  1.00  0.00    -0.049 C 
ATOM     28  C   UNL     1     -46.425  33.973  25.481  1.00  0.00    -0.049 C 
ATOM     29  H   UNL     1     -47.044  35.951  26.230  1.00  0.00     0.032 H 
ATOM     30  C   UNL     1     -47.531  32.966  25.848  1.00  0.00    -0.053 C 
ATOM     31  H   UNL     1     -49.017  34.608  25.719  1.00  0.00     0.027 H 
ATOM     32  H   UNL     1     -48.876  33.927  27.357  1.00  0.00     0.027 H 
ATOM     33  H   UNL     1     -45.400  33.618  25.616  1.00  0.00     0.027 H 
ATOM     34  H   UNL     1     -46.526  34.379  24.468  1.00  0.00     0.027 H 
ATOM     35  H   UNL     1     -48.001  32.450  25.007  1.00  0.00     0.027 H 
ATOM     36  H   UNL     1     -47.224  32.224  26.594  1.00  0.00     0.027 H 
ENDBRANCH  23  26
ENDBRANCH  21  23
ENDBRANCH  18  21
ENDBRANCH   2  18
BRANCH   7  37
ATOM     37  C   UNL     1     -41.813  42.108  27.930  1.00  0.00     0.043 C 
ATOM     38  H   UNL     1     -41.548  42.823  28.717  1.00  0.00     0.054 H 
ATOM     39  H   UNL     1     -40.877  41.703  27.531  1.00  0.00     0.054 H 
BRANCH  37  40
ATOM     40  N   UNL     1     -42.531  42.835  26.914  1.00  0.00    -0.347 N 
ATOM     41  C   UNL     1     -41.979  43.155  25.700  1.00  0.00     0.270 C 
ATOM     42  H   UNL     1     -43.541  42.910  26.978  1.00  0.00     0.164 HD
ATOM     43  O   UNL     1     -40.799  42.996  25.409  1.00  0.00    -0.268 OA
BRANCH  41  44
ATOM     44  C   UNL     1     -42.997  43.717  24.737  1.00  0.00     0.136 A 
ATOM     45  C   UNL     1     -44.270  43.700  25.140  1.00  0.00     0.035 A 
ATOM     46  N   UNL     1     -42.563  44.210  23.527  1.00  0.00    -0.225 NA
ATOM     47  C   UNL     1     -45.293  44.243  24.239  1.00  0.00     0.258 A 
ATOM     48  H   UNL     1     -44.597  43.311  26.095  1.00  0.00     0.071 H 
ATOM     49  C   UNL     1     -43.472  44.694  22.735  1.00  0.00     0.140 A 
ATOM     50  O   UNL     1     -46.468  44.226  24.600  1.00  0.00    -0.269 OA
ATOM     51  N   UNL     1     -44.830  44.738  23.029  1.00  0.00    -0.268 N 
ATOM     52  C   UNL     1     -43.048  45.246  21.416  1.00  0.00    -0.019 A 
ATOM     53  C   UNL     1     -45.740  45.273  22.124  1.00  0.00     0.014 A 
ATOM     54  C   UNL     1     -43.962  45.750  20.578  1.00  0.00    -0.057 A 
ATOM     55  H   UNL     1     -41.992  45.218  21.179  1.00  0.00     0.066 H 
ATOM     56  C   UNL     1     -45.354  45.765  20.941  1.00  0.00    -0.045 A 
ATOM     57  H   UNL     1     -46.787  45.275  22.419  1.00  0.00     0.082 H 
ATOM     58  H   UNL     1     -43.673  46.157  19.614  1.00  0.00     0.062 H 
ATOM     59  H   UNL     1     -46.073  46.181  20.242  1.00  0.00     0.064 H 
ENDBRANCH  41  44
ENDBRANCH  37  40
ENDBRANCH   7  37
TORSDOF 8
ENDMDL
MODEL 7
REMARK VINA RESULT:      -9.1      1.932      2.957
REMARK SMILES Cn1c(CNCC2CCC2)cc2ccc(CNC(=O)c3cc(=O)n4ccccc4n3)cc21
REMARK SMILES IDX 2 1 3 2 11 3 12 4 13 5 14 6 15 7 31 8 32 9 1 14 4 18 5 21
REMARK SMILES IDX 6 23 7 26 8 27 10 28 9 30 16 37 17 40 18 41 19 43 20 44
REMARK SMILES IDX 21 45 30 46 22 47 29 49 23 50 24 51 28 52 25 53 27 54 26 56
REMARK H PARENT 11 10 13 11 14 12 31 13 1 15 1 16 1 17 4 19 4 20 5 22 6 24
REMARK H PARENT 6 25 7 29 8 31 8 32 10 33 10 34 9 35 9 36 16 38 16 39 17 42
REMARK H PARENT 21 48 28 55 25 57 27 58 26 59
REMARK Flexibility Score: inf
ROOT
ATOM      1  N   UNL     1     -47.346  30.439  23.548  1.00  0.00    -0.346 N 
ATOM      2  C   UNL     1     -48.553  29.774  23.455  1.00  0.00     0.032 A 
ATOM      3  C   UNL     1     -49.450  30.452  24.261  1.00  0.00    -0.032 A 
ATOM      4  C   UNL     1     -48.773  31.539  24.870  1.00  0.00    -0.000 A 
ATOM      5  C   UNL     1     -49.168  32.543  25.776  1.00  0.00    -0.052 A 
ATOM      6  C   UNL     1     -48.231  33.489  26.207  1.00  0.00    -0.057 A 
ATOM      7  C   UNL     1     -46.910  33.456  25.751  1.00  0.00    -0.027 A 
ATOM      8  C   UNL     1     -46.503  32.453  24.853  1.00  0.00    -0.033 A 
ATOM      9  C   UNL     1     -47.453  31.511  24.420  1.00  0.00     0.048 A 
ATOM     10  H   UNL     1     -50.488  30.185  24.405  1.00  0.00     0.065 H 
ATOM     11  H   UNL     1     -50.189  32.581  26.143  1.00  0.00     0.063 H 
ATOM     12  H   UNL     1     -48.542  34.256  26.916  1.00  0.00     0.063 H 
ATOM     13  H   UNL     1     -45.476  32.409  24.505  1.00  0.00     0.065 H 
ENDROOT
BRANCH   1  14
ATOM     14  C   UNL     1     -46.127  30.059  22.866  1.00  0.00     0.012 C 
ATOM     15  H   UNL     1     -45.281  30.385  23.475  1.00  0.00     0.046 H 
ATOM     16  H   UNL     1     -46.104  28.977  22.721  1.00  0.00     0.046 H 
ATOM     17  H   UNL     1     -46.094  30.535  21.883  1.00  0.00     0.046 H 
ENDBRANCH   1  14
BRANCH   2  18
ATOM     18  C   UNL     1     -48.781  28.558  22.618  1.00  0.00     0.036 C 
ATOM     19  H   UNL     1     -48.305  28.691  21.640  1.00  0.00     0.049 H 
ATOM     20  H   UNL     1     -49.856  28.447  22.444  1.00  0.00     0.049 H 
BRANCH  18  21
ATOM     21  N   UNL     1     -48.241  27.394  23.309  1.00  0.00    -0.311 NA
ATOM     22  H   UNL     1     -47.229  27.487  23.375  1.00  0.00     0.123 HD
BRANCH  21  23
ATOM     23  C   UNL     1     -48.825  27.186  24.634  1.00  0.00    -0.002 C 
ATOM     24  H   UNL     1     -49.445  26.283  24.579  1.00  0.00     0.043 H 
ATOM     25  H   UNL     1     -49.509  28.007  24.879  1.00  0.00     0.043 H 
BRANCH  23  26
ATOM     26  C   UNL     1     -47.772  27.031  25.735  1.00  0.00    -0.029 C 
ATOM     27  C   UNL     1     -46.548  26.123  25.433  1.00  0.00    -0.049 C 
ATOM     28  C   UNL     1     -48.144  26.016  26.850  1.00  0.00    -0.049 C 
ATOM     29  H   UNL     1     -47.491  28.004  26.156  1.00  0.00     0.032 H 
ATOM     30  C   UNL     1     -47.309  24.962  26.100  1.00  0.00    -0.053 C 
ATOM     31  H   UNL     1     -45.643  26.420  25.978  1.00  0.00     0.027 H 
ATOM     32  H   UNL     1     -46.290  25.971  24.383  1.00  0.00     0.027 H 
ATOM     33  H   UNL     1     -49.206  25.783  26.966  1.00  0.00     0.027 H 
ATOM     34  H   UNL     1     -47.733  26.278  27.832  1.00  0.00     0.027 H 
ATOM     35  H   UNL     1     -46.708  24.298  26.727  1.00  0.00     0.027 H 
ATOM     36  H   UNL     1     -47.892  24.354  25.397  1.00  0.00     0.027 H 
ENDBRANCH  23  26
ENDBRANCH  21  23
ENDBRANCH  18  21
ENDBRANCH   2  18
BRANCH   7  37
ATOM     37  C   UNL     1     -45.914  34.471  26.257  1.00  0.00     0.043 C 
ATOM     38  H   UNL     1     -45.492  34.148  27.215  1.00  0.00     0.054 H 
ATOM     39  H   UNL     1     -45.082  34.569  25.552  1.00  0.00     0.054 H 
BRANCH  37  40
ATOM     40  N   UNL     1     -46.552  35.744  26.477  1.00  0.00    -0.347 N 
ATOM     41  C   UNL     1     -46.299  36.521  27.580  1.00  0.00     0.270 C 
ATOM     42  H   UNL     1     -47.013  36.209  25.701  1.00  0.00     0.164 HD
ATOM     43  O   UNL     1     -45.638  36.161  28.547  1.00  0.00    -0.268 OA
BRANCH  41  44
ATOM     44  C   UNL     1     -46.917  37.894  27.468  1.00  0.00     0.136 A 
ATOM     45  C   UNL     1     -48.143  38.037  27.978  1.00  0.00     0.035 A 
ATOM     46  N   UNL     1     -46.195  38.899  26.865  1.00  0.00    -0.225 NA
ATOM     47  C   UNL     1     -48.780  39.356  27.897  1.00  0.00     0.258 A 
ATOM     48  H   UNL     1     -48.699  37.239  28.451  1.00  0.00     0.071 H 
ATOM     49  C   UNL     1     -46.761  40.066  26.800  1.00  0.00     0.140 A 
ATOM     50  O   UNL     1     -49.911  39.497  28.359  1.00  0.00    -0.269 OA
ATOM     51  N   UNL     1     -48.030  40.353  27.290  1.00  0.00    -0.268 N 
ATOM     52  C   UNL     1     -46.013  41.187  26.162  1.00  0.00    -0.019 A 
ATOM     53  C   UNL     1     -48.565  41.632  27.180  1.00  0.00     0.014 A 
ATOM     54  C   UNL     1     -46.572  42.401  26.080  1.00  0.00    -0.057 A 
ATOM     55  H   UNL     1     -45.023  40.973  25.780  1.00  0.00     0.066 H 
ATOM     56  C   UNL     1     -47.890  42.634  26.604  1.00  0.00    -0.045 A 
ATOM     57  H   UNL     1     -49.564  41.786  27.584  1.00  0.00     0.082 H 
ATOM     58  H   UNL     1     -46.043  43.229  25.619  1.00  0.00     0.062 H 
ATOM     59  H   UNL     1     -48.318  43.628  26.525  1.00  0.00     0.064 H 
ENDBRANCH  41  44
ENDBRANCH  37  40
ENDBRANCH   7  37
TORSDOF 8
ENDMDL
