MODEL 1
REMARK VINA RESULT:     -10.6      0.000      0.000
REMARK SMILES Nc1ncnc2c1c(Cl)cn2-c1cncc(COc2ccc3ccc(N4CCC4)nc3c2)c1
REMARK SMILES IDX 17 1 16 4 12 5 13 6 33 7 14 8 15 11 11 13 2 14 3 15 7 16
REMARK SMILES IDX 4 17 6 18 8 19 5 20 9 22 10 23 1 25 18 28 19 29 20 30 32 31
REMARK SMILES IDX 21 32 31 34 22 36 30 38 23 39 25 40 24 41 26 44 27 45 29 46
REMARK SMILES IDX 28 47
REMARK H PARENT 17 2 17 3 13 9 33 10 15 12 4 21 10 24 1 26 1 27 20 33 32 35
REMARK H PARENT 21 37 23 42 24 43 27 48 27 49 29 50 29 51 28 52 28 53
REMARK Flexibility Score: inf
ROOT
ATOM      1  C   UNL     1     -46.965  36.626  26.745  1.00  0.00     0.115 C 
ATOM      2  H   UNL     1     -47.897  36.894  26.231  1.00  0.00     0.076 H 
ATOM      3  H   UNL     1     -46.153  37.044  26.139  1.00  0.00     0.076 H 
ENDROOT
BRANCH   1   4
ATOM      4  C   UNL     1     -46.904  35.118  26.796  1.00  0.00     0.010 A 
ATOM      5  C   UNL     1     -47.346  32.901  25.896  1.00  0.00     0.066 A 
ATOM      6  C   UNL     1     -46.690  32.391  27.011  1.00  0.00     0.051 A 
ATOM      7  C   UNL     1     -47.422  34.292  25.788  1.00  0.00    -0.028 A 
ATOM      8  N   UNL     1     -46.148  33.153  27.991  1.00  0.00    -0.262 NA
ATOM      9  H   UNL     1     -46.588  31.326  27.201  1.00  0.00     0.086 H 
ATOM     10  H   UNL     1     -47.869  34.761  24.916  1.00  0.00     0.065 H 
ATOM     11  C   UNL     1     -46.271  34.492  27.863  1.00  0.00     0.034 A 
ATOM     12  H   UNL     1     -45.825  35.064  28.673  1.00  0.00     0.084 H 
BRANCH   5  13
ATOM     13  N   UNL     1     -47.919  32.033  24.917  1.00  0.00    -0.298 N 
ATOM     14  C   UNL     1     -47.826  30.197  21.854  1.00  0.00     0.137 A 
ATOM     15  N   UNL     1     -46.596  30.480  21.388  1.00  0.00    -0.219 NA
ATOM     16  C   UNL     1     -48.240  30.749  23.074  1.00  0.00     0.080 A 
ATOM     17  C   UNL     1     -45.815  31.304  22.106  1.00  0.00     0.120 A 
ATOM     18  C   UNL     1     -47.329  31.567  23.739  1.00  0.00     0.151 A 
ATOM     19  C   UNL     1     -49.407  30.714  23.870  1.00  0.00     0.072 A 
ATOM     20  N   UNL     1     -46.100  31.880  23.282  1.00  0.00    -0.218 NA
ATOM     21  H   UNL     1     -44.839  31.527  21.684  1.00  0.00     0.106 H 
ATOM     22  Cl  UNL     1     -50.827  29.842  23.533  1.00  0.00    -0.082 Cl
ATOM     23  C   UNL     1     -49.199  31.509  24.972  1.00  0.00     0.031 A 
ATOM     24  H   UNL     1     -49.862  31.704  25.803  1.00  0.00     0.084 H 
BRANCH  14  25
ATOM     25  N   UNL     1     -48.608  29.359  21.075  1.00  0.00    -0.383 N 
ATOM     26  H   UNL     1     -48.286  28.405  20.987  1.00  0.00     0.158 HD
ATOM     27  H   UNL     1     -48.924  29.824  20.232  1.00  0.00     0.158 HD
ENDBRANCH  14  25
ENDBRANCH   5  13
ENDBRANCH   1   4
BRANCH   1  28
ATOM     28  O   UNL     1     -47.024  37.275  28.020  1.00  0.00    -0.489 OA
BRANCH  28  29
ATOM     29  C   UNL     1     -45.921  37.960  28.453  1.00  0.00     0.122 A 
ATOM     30  C   UNL     1     -45.215  37.714  29.625  1.00  0.00    -0.019 A 
ATOM     31  C   UNL     1     -45.521  39.006  27.613  1.00  0.00     0.007 A 
ATOM     32  C   UNL     1     -44.135  38.533  29.961  1.00  0.00    -0.049 A 
ATOM     33  H   UNL     1     -45.478  36.907  30.299  1.00  0.00     0.066 H 
ATOM     34  C   UNL     1     -44.466  39.845  27.934  1.00  0.00     0.076 A 
ATOM     35  H   UNL     1     -46.075  39.193  26.696  1.00  0.00     0.069 H 
ATOM     36  C   UNL     1     -43.764  39.600  29.128  1.00  0.00     0.001 A 
ATOM     37  H   UNL     1     -43.594  38.341  30.884  1.00  0.00     0.063 H 
ATOM     38  N   UNL     1     -44.162  40.865  27.111  1.00  0.00    -0.231 NA
ATOM     39  C   UNL     1     -42.709  40.457  29.447  1.00  0.00    -0.049 A 
ATOM     40  C   UNL     1     -43.138  41.690  27.428  1.00  0.00     0.129 A 
ATOM     41  C   UNL     1     -42.396  41.511  28.592  1.00  0.00    -0.019 A 
ATOM     42  H   UNL     1     -42.134  40.322  30.359  1.00  0.00     0.063 H 
ATOM     43  H   UNL     1     -41.592  42.191  28.846  1.00  0.00     0.066 H 
BRANCH  40  44
ATOM     44  N   UNL     1     -42.852  42.767  26.571  1.00  0.00    -0.356 N 
ATOM     45  C   UNL     1     -43.693  43.182  25.485  1.00  0.00     0.021 C 
ATOM     46  C   UNL     1     -41.655  42.954  25.803  1.00  0.00     0.021 C 
ATOM     47  C   UNL     1     -42.468  43.921  24.935  1.00  0.00    -0.018 C 
ATOM     48  H   UNL     1     -44.530  43.812  25.799  1.00  0.00     0.049 H 
ATOM     49  H   UNL     1     -44.043  42.349  24.868  1.00  0.00     0.049 H 
ATOM     50  H   UNL     1     -40.835  43.400  26.370  1.00  0.00     0.049 H 
ATOM     51  H   UNL     1     -41.326  42.042  25.294  1.00  0.00     0.049 H 
ATOM     52  H   UNL     1     -42.308  43.844  23.858  1.00  0.00     0.030 H 
ATOM     53  H   UNL     1     -42.399  44.971  25.243  1.00  0.00     0.030 H 
ENDBRANCH  40  44
ENDBRANCH  28  29
ENDBRANCH   1  28
TORSDOF 6
ENDMDL
MODEL 2
REMARK VINA RESULT:     -10.5      3.396     10.849
REMARK SMILES Nc1ncnc2c1c(Cl)cn2-c1cncc(COc2ccc3ccc(N4CCC4)nc3c2)c1
REMARK SMILES IDX 17 1 16 4 12 5 13 6 33 7 14 8 15 11 11 13 2 14 3 15 7 16
REMARK SMILES IDX 4 17 6 18 8 19 5 20 9 22 10 23 1 25 18 28 19 29 20 30 32 31
REMARK SMILES IDX 21 32 31 34 22 36 30 38 23 39 25 40 24 41 26 44 27 45 29 46
REMARK SMILES IDX 28 47
REMARK H PARENT 17 2 17 3 13 9 33 10 15 12 4 21 10 24 1 26 1 27 20 33 32 35
REMARK H PARENT 21 37 23 42 24 43 27 48 27 49 29 50 29 51 28 52 28 53
REMARK Flexibility Score: inf
ROOT
ATOM      1  C   UNL     1     -48.373  36.601  27.282  1.00  0.00     0.115 C 
ATOM      2  H   UNL     1     -48.024  36.790  26.259  1.00  0.00     0.076 H 
ATOM      3  H   UNL     1     -49.248  37.245  27.429  1.00  0.00     0.076 H 
ENDROOT
BRANCH   1   4
ATOM      4  C   UNL     1     -47.243  36.975  28.212  1.00  0.00     0.010 A 
ATOM      5  C   UNL     1     -45.359  38.361  28.884  1.00  0.00     0.066 A 
ATOM      6  C   UNL     1     -45.251  37.552  30.009  1.00  0.00     0.051 A 
ATOM      7  C   UNL     1     -46.396  38.071  27.992  1.00  0.00    -0.028 A 
ATOM      8  N   UNL     1     -46.068  36.504  30.276  1.00  0.00    -0.262 NA
ATOM      9  H   UNL     1     -44.474  37.680  30.757  1.00  0.00     0.086 H 
ATOM     10  H   UNL     1     -46.576  38.695  27.122  1.00  0.00     0.065 H 
ATOM     11  C   UNL     1     -47.037  36.239  29.373  1.00  0.00     0.034 A 
ATOM     12  H   UNL     1     -47.666  35.389  29.624  1.00  0.00     0.084 H 
BRANCH   5  13
ATOM     13  N   UNL     1     -44.442  39.431  28.655  1.00  0.00    -0.298 N 
ATOM     14  C   UNL     1     -43.190  42.196  26.769  1.00  0.00     0.137 A 
ATOM     15  N   UNL     1     -44.043  42.243  25.730  1.00  0.00    -0.219 NA
ATOM     16  C   UNL     1     -43.366  41.215  27.755  1.00  0.00     0.080 A 
ATOM     17  C   UNL     1     -45.025  41.328  25.667  1.00  0.00     0.120 A 
ATOM     18  C   UNL     1     -44.438  40.340  27.593  1.00  0.00     0.151 A 
ATOM     19  C   UNL     1     -42.709  40.832  28.947  1.00  0.00     0.072 A 
ATOM     20  N   UNL     1     -45.292  40.356  26.550  1.00  0.00    -0.218 NA
ATOM     21  H   UNL     1     -45.677  41.385  24.800  1.00  0.00     0.106 H 
ATOM     22  Cl  UNL     1     -41.344  41.583  29.628  1.00  0.00    -0.082 Cl
ATOM     23  C   UNL     1     -43.365  39.742  29.468  1.00  0.00     0.031 A 
ATOM     24  H   UNL     1     -43.158  39.196  30.376  1.00  0.00     0.084 H 
BRANCH  14  25
ATOM     25  N   UNL     1     -42.180  43.144  26.788  1.00  0.00    -0.383 N 
ATOM     26  H   UNL     1     -42.024  43.610  27.672  1.00  0.00     0.158 HD
ATOM     27  H   UNL     1     -42.196  43.721  25.955  1.00  0.00     0.158 HD
ENDBRANCH  14  25
ENDBRANCH   5  13
ENDBRANCH   1   4
BRANCH   1  28
ATOM     28  O   UNL     1     -48.755  35.221  27.314  1.00  0.00    -0.489 OA
BRANCH  28  29
ATOM     29  C   UNL     1     -48.088  34.343  26.504  1.00  0.00     0.122 A 
ATOM     30  C   UNL     1     -46.848  34.558  25.912  1.00  0.00    -0.019 A 
ATOM     31  C   UNL     1     -48.767  33.143  26.266  1.00  0.00     0.007 A 
ATOM     32  C   UNL     1     -46.312  33.585  25.066  1.00  0.00    -0.049 A 
ATOM     33  H   UNL     1     -46.278  35.464  26.079  1.00  0.00     0.066 H 
ATOM     34  C   UNL     1     -48.268  32.171  25.413  1.00  0.00     0.076 A 
ATOM     35  H   UNL     1     -49.735  32.978  26.732  1.00  0.00     0.069 H 
ATOM     36  C   UNL     1     -47.019  32.400  24.807  1.00  0.00     0.001 A 
ATOM     37  H   UNL     1     -45.347  33.764  24.599  1.00  0.00     0.063 H 
ATOM     38  N   UNL     1     -48.992  31.060  25.183  1.00  0.00    -0.231 NA
ATOM     39  C   UNL     1     -46.529  31.419  23.942  1.00  0.00    -0.049 A 
ATOM     40  C   UNL     1     -48.508  30.116  24.345  1.00  0.00     0.129 A 
ATOM     41  C   UNL     1     -47.281  30.271  23.708  1.00  0.00    -0.019 A 
ATOM     42  H   UNL     1     -45.574  31.543  23.439  1.00  0.00     0.063 H 
ATOM     43  H   UNL     1     -46.914  29.517  23.022  1.00  0.00     0.066 H 
BRANCH  40  44
ATOM     44  N   UNL     1     -49.292  28.975  24.095  1.00  0.00    -0.356 N 
ATOM     45  C   UNL     1     -48.963  27.653  24.547  1.00  0.00     0.021 C 
ATOM     46  C   UNL     1     -49.728  28.501  22.814  1.00  0.00     0.021 C 
ATOM     47  C   UNL     1     -49.948  27.143  23.491  1.00  0.00    -0.018 C 
ATOM     48  H   UNL     1     -49.240  27.467  25.588  1.00  0.00     0.049 H 
ATOM     49  H   UNL     1     -47.916  27.385  24.369  1.00  0.00     0.049 H 
ATOM     50  H   UNL     1     -50.628  28.998  22.446  1.00  0.00     0.049 H 
ATOM     51  H   UNL     1     -48.936  28.518  22.059  1.00  0.00     0.049 H 
ATOM     52  H   UNL     1     -49.626  26.269  22.920  1.00  0.00     0.030 H 
ATOM     53  H   UNL     1     -50.967  26.984  23.863  1.00  0.00     0.030 H 
ENDBRANCH  40  44
ENDBRANCH  28  29
ENDBRANCH   1  28
TORSDOF 6
ENDMDL
MODEL 3
REMARK VINA RESULT:      -9.8      3.939     11.563
REMARK SMILES Nc1ncnc2c1c(Cl)cn2-c1cncc(COc2ccc3ccc(N4CCC4)nc3c2)c1
REMARK SMILES IDX 17 1 16 4 12 5 13 6 33 7 14 8 15 11 11 13 2 14 3 15 7 16
REMARK SMILES IDX 4 17 6 18 8 19 5 20 9 22 10 23 1 25 18 28 19 29 20 30 32 31
REMARK SMILES IDX 21 32 31 34 22 36 30 38 23 39 25 40 24 41 26 44 27 45 29 46
REMARK SMILES IDX 28 47
REMARK H PARENT 17 2 17 3 13 9 33 10 15 12 4 21 10 24 1 26 1 27 20 33 32 35
REMARK H PARENT 21 37 23 42 24 43 27 48 27 49 29 50 29 51 28 52 28 53
REMARK Flexibility Score: inf
ROOT
ATOM      1  C   UNL     1     -48.004  34.006  26.243  1.00  0.00     0.115 C 
ATOM      2  H   UNL     1     -47.496  33.371  26.979  1.00  0.00     0.076 H 
ATOM      3  H   UNL     1     -47.364  34.012  25.353  1.00  0.00     0.076 H 
ENDROOT
BRANCH   1   4
ATOM      4  C   UNL     1     -48.123  35.383  26.852  1.00  0.00     0.010 A 
ATOM      5  C   UNL     1     -47.255  37.587  27.410  1.00  0.00     0.066 A 
ATOM      6  C   UNL     1     -48.496  37.859  27.975  1.00  0.00     0.051 A 
ATOM      7  C   UNL     1     -47.090  36.331  26.818  1.00  0.00    -0.028 A 
ATOM      8  N   UNL     1     -49.530  36.984  28.001  1.00  0.00    -0.262 NA
ATOM      9  H   UNL     1     -48.726  38.796  28.474  1.00  0.00     0.086 H 
ATOM     10  H   UNL     1     -46.168  36.071  26.307  1.00  0.00     0.065 H 
ATOM     11  C   UNL     1     -49.318  35.771  27.446  1.00  0.00     0.034 A 
ATOM     12  H   UNL     1     -50.172  35.099  27.492  1.00  0.00     0.084 H 
BRANCH   5  13
ATOM     13  N   UNL     1     -46.202  38.550  27.446  1.00  0.00    -0.298 N 
ATOM     14  C   UNL     1     -43.380  40.118  28.978  1.00  0.00     0.137 A 
ATOM     15  N   UNL     1     -43.253  39.423  30.122  1.00  0.00    -0.219 NA
ATOM     16  C   UNL     1     -44.407  39.783  28.083  1.00  0.00     0.080 A 
ATOM     17  C   UNL     1     -44.134  38.441  30.375  1.00  0.00     0.120 A 
ATOM     18  C   UNL     1     -45.239  38.726  28.444  1.00  0.00     0.151 A 
ATOM     19  C   UNL     1     -44.871  40.255  26.835  1.00  0.00     0.072 A 
ATOM     20  N   UNL     1     -45.143  38.030  29.594  1.00  0.00    -0.218 NA
ATOM     21  H   UNL     1     -44.012  37.919  31.320  1.00  0.00     0.106 H 
ATOM     22  Cl  UNL     1     -44.197  41.526  25.927  1.00  0.00    -0.082 Cl
ATOM     23  C   UNL     1     -45.967  39.508  26.474  1.00  0.00     0.031 A 
ATOM     24  H   UNL     1     -46.566  39.572  25.577  1.00  0.00     0.084 H 
BRANCH  14  25
ATOM     25  N   UNL     1     -42.465  41.136  28.763  1.00  0.00    -0.383 N 
ATOM     26  H   UNL     1     -42.317  41.405  27.800  1.00  0.00     0.158 HD
ATOM     27  H   UNL     1     -41.644  41.027  29.347  1.00  0.00     0.158 HD
ENDBRANCH  14  25
ENDBRANCH   5  13
ENDBRANCH   1   4
BRANCH   1  28
ATOM     28  O   UNL     1     -49.248  33.357  25.961  1.00  0.00    -0.489 OA
BRANCH  28  29
ATOM     29  C   UNL     1     -49.228  32.202  25.228  1.00  0.00     0.122 A 
ATOM     30  C   UNL     1     -49.625  32.069  23.902  1.00  0.00    -0.019 A 
ATOM     31  C   UNL     1     -48.779  31.077  25.929  1.00  0.00     0.007 A 
ATOM     32  C   UNL     1     -49.596  30.810  23.298  1.00  0.00    -0.049 A 
ATOM     33  H   UNL     1     -49.966  32.913  23.314  1.00  0.00     0.066 H 
ATOM     34  C   UNL     1     -48.760  29.813  25.360  1.00  0.00     0.076 A 
ATOM     35  H   UNL     1     -48.468  31.186  26.966  1.00  0.00     0.069 H 
ATOM     36  C   UNL     1     -49.175  29.683  24.023  1.00  0.00     0.001 A 
ATOM     37  H   UNL     1     -49.916  30.713  22.264  1.00  0.00     0.063 H 
ATOM     38  N   UNL     1     -48.366  28.762  26.102  1.00  0.00    -0.231 NA
ATOM     39  C   UNL     1     -49.161  28.405  23.461  1.00  0.00    -0.049 A 
ATOM     40  C   UNL     1     -48.356  27.528  25.549  1.00  0.00     0.129 A 
ATOM     41  C   UNL     1     -48.752  27.320  24.232  1.00  0.00    -0.019 A 
ATOM     42  H   UNL     1     -49.477  28.241  22.435  1.00  0.00     0.063 H 
ATOM     43  H   UNL     1     -48.759  26.323  23.807  1.00  0.00     0.066 H 
BRANCH  40  44
ATOM     44  N   UNL     1     -47.967  26.438  26.348  1.00  0.00    -0.356 N 
ATOM     45  C   UNL     1     -46.616  25.968  26.475  1.00  0.00     0.021 C 
ATOM     46  C   UNL     1     -48.496  25.106  26.292  1.00  0.00     0.021 C 
ATOM     47  C   UNL     1     -47.215  24.663  27.009  1.00  0.00    -0.018 C 
ATOM     48  H   UNL     1     -46.020  26.547  27.186  1.00  0.00     0.049 H 
ATOM     49  H   UNL     1     -46.099  25.879  25.514  1.00  0.00     0.049 H 
ATOM     50  H   UNL     1     -49.422  24.978  26.856  1.00  0.00     0.049 H 
ATOM     51  H   UNL     1     -48.606  24.731  25.269  1.00  0.00     0.049 H 
ATOM     52  H   UNL     1     -46.757  23.742  26.641  1.00  0.00     0.030 H 
ATOM     53  H   UNL     1     -47.300  24.619  28.101  1.00  0.00     0.030 H 
ENDBRANCH  40  44
ENDBRANCH  28  29
ENDBRANCH   1  28
TORSDOF 6
ENDMDL
MODEL 4
REMARK VINA RESULT:      -9.8      2.006      3.069
REMARK SMILES Nc1ncnc2c1c(Cl)cn2-c1cncc(COc2ccc3ccc(N4CCC4)nc3c2)c1
REMARK SMILES IDX 17 1 16 4 12 5 13 6 33 7 14 8 15 11 11 13 2 14 3 15 7 16
REMARK SMILES IDX 4 17 6 18 8 19 5 20 9 22 10 23 1 25 18 28 19 29 20 30 32 31
REMARK SMILES IDX 21 32 31 34 22 36 30 38 23 39 25 40 24 41 26 44 27 45 29 46
REMARK SMILES IDX 28 47
REMARK H PARENT 17 2 17 3 13 9 33 10 15 12 4 21 10 24 1 26 1 27 20 33 32 35
REMARK H PARENT 21 37 23 42 24 43 27 48 27 49 29 50 29 51 28 52 28 53
REMARK Flexibility Score: inf
ROOT
ATOM      1  C   UNL     1     -48.492  34.503  26.831  1.00  0.00     0.115 C 
ATOM      2  H   UNL     1     -48.225  34.215  27.855  1.00  0.00     0.076 H 
ATOM      3  H   UNL     1     -49.588  34.492  26.788  1.00  0.00     0.076 H 
ENDROOT
BRANCH   1   4
ATOM      4  C   UNL     1     -47.889  33.470  25.908  1.00  0.00     0.010 A 
ATOM      5  C   UNL     1     -48.035  31.582  24.380  1.00  0.00     0.066 A 
ATOM      6  C   UNL     1     -46.654  31.674  24.240  1.00  0.00     0.051 A 
ATOM      7  C   UNL     1     -48.651  32.521  25.211  1.00  0.00    -0.028 A 
ATOM      8  N   UNL     1     -45.884  32.594  24.870  1.00  0.00    -0.262 NA
ATOM      9  H   UNL     1     -46.074  30.986  23.632  1.00  0.00     0.086 H 
ATOM     10  H   UNL     1     -49.731  32.546  25.322  1.00  0.00     0.065 H 
ATOM     11  C   UNL     1     -46.516  33.463  25.688  1.00  0.00     0.034 A 
ATOM     12  H   UNL     1     -45.861  34.181  26.175  1.00  0.00     0.084 H 
BRANCH   5  13
ATOM     13  N   UNL     1     -48.777  30.565  23.706  1.00  0.00    -0.298 N 
ATOM     14  C   UNL     1     -50.304  27.340  23.520  1.00  0.00     0.137 A 
ATOM     15  N   UNL     1     -50.028  26.823  24.731  1.00  0.00    -0.219 NA
ATOM     16  C   UNL     1     -49.858  28.633  23.210  1.00  0.00     0.080 A 
ATOM     17  C   UNL     1     -49.312  27.562  25.594  1.00  0.00     0.120 A 
ATOM     18  C   UNL     1     -49.149  29.311  24.199  1.00  0.00     0.151 A 
ATOM     19  C   UNL     1     -49.923  29.498  22.094  1.00  0.00     0.072 A 
ATOM     20  N   UNL     1     -48.843  28.805  25.410  1.00  0.00    -0.218 NA
ATOM     21  H   UNL     1     -49.090  27.100  26.551  1.00  0.00     0.106 H 
ATOM     22  Cl  UNL     1     -50.698  29.175  20.615  1.00  0.00    -0.082 Cl
ATOM     23  C   UNL     1     -49.250  30.655  22.408  1.00  0.00     0.031 A 
ATOM     24  H   UNL     1     -49.110  31.543  21.808  1.00  0.00     0.084 H 
BRANCH  14  25
ATOM     25  N   UNL     1     -51.027  26.539  22.651  1.00  0.00    -0.383 N 
ATOM     26  H   UNL     1     -51.644  27.022  22.012  1.00  0.00     0.158 HD
ATOM     27  H   UNL     1     -51.392  25.718  23.120  1.00  0.00     0.158 HD
ENDBRANCH  14  25
ENDBRANCH   5  13
ENDBRANCH   1   4
BRANCH   1  28
ATOM     28  O   UNL     1     -47.997  35.835  26.658  1.00  0.00    -0.489 OA
BRANCH  28  29
ATOM     29  C   UNL     1     -47.113  36.324  27.580  1.00  0.00     0.122 A 
ATOM     30  C   UNL     1     -46.928  35.842  28.871  1.00  0.00    -0.019 A 
ATOM     31  C   UNL     1     -46.364  37.423  27.141  1.00  0.00     0.007 A 
ATOM     32  C   UNL     1     -46.020  36.479  29.720  1.00  0.00    -0.049 A 
ATOM     33  H   UNL     1     -47.473  34.986  29.251  1.00  0.00     0.066 H 
ATOM     34  C   UNL     1     -45.473  38.085  27.969  1.00  0.00     0.076 A 
ATOM     35  H   UNL     1     -46.511  37.795  26.130  1.00  0.00     0.069 H 
ATOM     36  C   UNL     1     -45.301  37.601  29.279  1.00  0.00     0.001 A 
ATOM     37  H   UNL     1     -45.889  36.103  30.731  1.00  0.00     0.063 H 
ATOM     38  N   UNL     1     -44.821  39.167  27.505  1.00  0.00    -0.231 NA
ATOM     39  C   UNL     1     -44.407  38.281  30.109  1.00  0.00    -0.049 A 
ATOM     40  C   UNL     1     -43.957  39.819  28.317  1.00  0.00     0.129 A 
ATOM     41  C   UNL     1     -43.734  39.400  29.624  1.00  0.00    -0.019 A 
ATOM     42  H   UNL     1     -44.238  37.958  31.132  1.00  0.00     0.063 H 
ATOM     43  H   UNL     1     -43.055  39.943  30.271  1.00  0.00     0.066 H 
BRANCH  40  44
ATOM     44  N   UNL     1     -43.306  40.963  27.823  1.00  0.00    -0.356 N 
ATOM     45  C   UNL     1     -42.605  41.912  28.642  1.00  0.00     0.021 C 
ATOM     46  C   UNL     1     -43.884  41.992  27.009  1.00  0.00     0.021 C 
ATOM     47  C   UNL     1     -42.720  42.881  27.461  1.00  0.00    -0.018 C 
ATOM     48  H   UNL     1     -41.592  41.596  28.904  1.00  0.00     0.049 H 
ATOM     49  H   UNL     1     -43.165  42.206  29.535  1.00  0.00     0.049 H 
ATOM     50  H   UNL     1     -43.908  41.747  25.945  1.00  0.00     0.049 H 
ATOM     51  H   UNL     1     -44.872  42.310  27.358  1.00  0.00     0.049 H 
ATOM     52  H   UNL     1     -42.978  43.912  27.713  1.00  0.00     0.030 H 
ATOM     53  H   UNL     1     -41.857  42.873  26.785  1.00  0.00     0.030 H 
ENDBRANCH  40  44
ENDBRANCH  28  29
ENDBRANCH   1  28
TORSDOF 6
ENDMDL
MODEL 5
REMARK VINA RESULT:      -9.8      1.490      2.034
REMARK SMILES Nc1ncnc2c1c(Cl)cn2-c1cncc(COc2ccc3ccc(N4CCC4)nc3c2)c1
REMARK SMILES IDX 17 1 16 4 12 5 13 6 33 7 14 8 15 11 11 13 2 14 3 15 7 16
REMARK SMILES IDX 4 17 6 18 8 19 5 20 9 22 10 23 1 25 18 28 19 29 20 30 32 31
REMARK SMILES IDX 21 32 31 34 22 36 30 38 23 39 25 40 24 41 26 44 27 45 29 46
REMARK SMILES IDX 28 47
REMARK H PARENT 17 2 17 3 13 9 33 10 15 12 4 21 10 24 1 26 1 27 20 33 32 35
REMARK H PARENT 21 37 23 42 24 43 27 48 27 49 29 50 29 51 28 52 28 53
REMARK Flexibility Score: inf
ROOT
ATOM      1  C   UNL     1     -46.144  36.235  26.859  1.00  0.00     0.115 C 
ATOM      2  H   UNL     1     -46.152  36.943  26.021  1.00  0.00     0.076 H 
ATOM      3  H   UNL     1     -45.131  35.819  26.896  1.00  0.00     0.076 H 
ENDROOT
BRANCH   1   4
ATOM      4  C   UNL     1     -47.173  35.172  26.550  1.00  0.00     0.010 A 
ATOM      5  C   UNL     1     -47.933  33.161  25.411  1.00  0.00     0.066 A 
ATOM      6  C   UNL     1     -49.126  33.296  26.112  1.00  0.00     0.051 A 
ATOM      7  C   UNL     1     -46.938  34.109  25.666  1.00  0.00    -0.028 A 
ATOM      8  N   UNL     1     -49.381  34.288  26.999  1.00  0.00    -0.262 NA
ATOM      9  H   UNL     1     -49.970  32.624  25.979  1.00  0.00     0.086 H 
ATOM     10  H   UNL     1     -45.962  34.034  25.197  1.00  0.00     0.065 H 
ATOM     11  C   UNL     1     -48.405  35.200  27.193  1.00  0.00     0.034 A 
ATOM     12  H   UNL     1     -48.652  35.980  27.909  1.00  0.00     0.084 H 
BRANCH   5  13
ATOM     13  N   UNL     1     -47.748  32.104  24.469  1.00  0.00    -0.298 N 
ATOM     14  C   UNL     1     -48.954  29.629  22.190  1.00  0.00     0.137 A 
ATOM     15  N   UNL     1     -50.287  29.792  22.272  1.00  0.00    -0.219 NA
ATOM     16  C   UNL     1     -48.116  30.449  22.961  1.00  0.00     0.080 A 
ATOM     17  C   UNL     1     -50.767  30.725  23.110  1.00  0.00     0.120 A 
ATOM     18  C   UNL     1     -48.733  31.400  23.771  1.00  0.00     0.151 A 
ATOM     19  C   UNL     1     -46.724  30.584  23.168  1.00  0.00     0.072 A 
ATOM     20  N   UNL     1     -50.066  31.565  23.883  1.00  0.00    -0.218 NA
ATOM     21  H   UNL     1     -51.849  30.808  23.164  1.00  0.00     0.106 H 
ATOM     22  Cl  UNL     1     -45.503  29.680  22.405  1.00  0.00    -0.082 Cl
ATOM     23  C   UNL     1     -46.523  31.580  24.094  1.00  0.00     0.031 A 
ATOM     24  H   UNL     1     -45.592  31.969  24.480  1.00  0.00     0.084 H 
BRANCH  14  25
ATOM     25  N   UNL     1     -48.498  28.644  21.330  1.00  0.00    -0.383 N 
ATOM     26  H   UNL     1     -48.840  27.708  21.505  1.00  0.00     0.158 HD
ATOM     27  H   UNL     1     -47.508  28.748  21.137  1.00  0.00     0.158 HD
ENDBRANCH  14  25
ENDBRANCH   5  13
ENDBRANCH   1   4
BRANCH   1  28
ATOM     28  O   UNL     1     -46.409  37.014  28.031  1.00  0.00    -0.489 OA
BRANCH  28  29
ATOM     29  C   UNL     1     -45.427  37.846  28.494  1.00  0.00     0.122 A 
ATOM     30  C   UNL     1     -44.764  37.729  29.711  1.00  0.00    -0.019 A 
ATOM     31  C   UNL     1     -45.113  38.907  27.637  1.00  0.00     0.007 A 
ATOM     32  C   UNL     1     -43.815  38.688  30.071  1.00  0.00    -0.049 A 
ATOM     33  H   UNL     1     -44.962  36.917  30.400  1.00  0.00     0.066 H 
ATOM     34  C   UNL     1     -44.192  39.884  27.980  1.00  0.00     0.076 A 
ATOM     35  H   UNL     1     -45.633  38.994  26.686  1.00  0.00     0.069 H 
ATOM     36  C   UNL     1     -43.534  39.767  29.218  1.00  0.00     0.001 A 
ATOM     37  H   UNL     1     -43.308  38.595  31.028  1.00  0.00     0.063 H 
ATOM     38  N   UNL     1     -43.971  40.908  27.136  1.00  0.00    -0.231 NA
ATOM     39  C   UNL     1     -42.614  40.761  29.559  1.00  0.00    -0.049 A 
ATOM     40  C   UNL     1     -43.078  41.865  27.475  1.00  0.00     0.129 A 
ATOM     41  C   UNL     1     -42.387  41.818  28.682  1.00  0.00    -0.019 A 
ATOM     42  H   UNL     1     -42.080  40.728  30.505  1.00  0.00     0.063 H 
ATOM     43  H   UNL     1     -41.690  42.602  28.952  1.00  0.00     0.066 H 
BRANCH  40  44
ATOM     44  N   UNL     1     -42.880  42.942  26.593  1.00  0.00    -0.356 N 
ATOM     45  C   UNL     1     -43.854  43.400  25.643  1.00  0.00     0.021 C 
ATOM     46  C   UNL     1     -41.801  43.097  25.662  1.00  0.00     0.021 C 
ATOM     47  C   UNL     1     -42.695  44.103  24.928  1.00  0.00    -0.018 C 
ATOM     48  H   UNL     1     -44.613  44.054  26.079  1.00  0.00     0.049 H 
ATOM     49  H   UNL     1     -44.319  42.586  25.077  1.00  0.00     0.049 H 
ATOM     50  H   UNL     1     -40.892  43.509  26.108  1.00  0.00     0.049 H 
ATOM     51  H   UNL     1     -41.581  42.181  25.104  1.00  0.00     0.049 H 
ATOM     52  H   UNL     1     -42.695  44.034  23.838  1.00  0.00     0.030 H 
ATOM     53  H   UNL     1     -42.545  45.146  25.230  1.00  0.00     0.030 H 
ENDBRANCH  40  44
ENDBRANCH  28  29
ENDBRANCH   1  28
TORSDOF 6
ENDMDL
MODEL 6
REMARK VINA RESULT:      -9.7      1.875      2.468
REMARK SMILES Nc1ncnc2c1c(Cl)cn2-c1cncc(COc2ccc3ccc(N4CCC4)nc3c2)c1
REMARK SMILES IDX 17 1 16 4 12 5 13 6 33 7 14 8 15 11 11 13 2 14 3 15 7 16
REMARK SMILES IDX 4 17 6 18 8 19 5 20 9 22 10 23 1 25 18 28 19 29 20 30 32 31
REMARK SMILES IDX 21 32 31 34 22 36 30 38 23 39 25 40 24 41 26 44 27 45 29 46
REMARK SMILES IDX 28 47
REMARK H PARENT 17 2 17 3 13 9 33 10 15 12 4 21 10 24 1 26 1 27 20 33 32 35
REMARK H PARENT 21 37 23 42 24 43 27 48 27 49 29 50 29 51 28 52 28 53
REMARK Flexibility Score: inf
ROOT
ATOM      1  C   UNL     1     -48.689  35.407  27.112  1.00  0.00     0.115 C 
ATOM      2  H   UNL     1     -49.746  35.129  27.204  1.00  0.00     0.076 H 
ATOM      3  H   UNL     1     -48.671  36.355  26.562  1.00  0.00     0.076 H 
ENDROOT
BRANCH   1   4
ATOM      4  C   UNL     1     -48.006  34.302  26.340  1.00  0.00     0.010 A 
ATOM      5  C   UNL     1     -47.979  32.148  25.209  1.00  0.00     0.066 A 
ATOM      6  C   UNL     1     -46.642  32.392  24.918  1.00  0.00     0.051 A 
ATOM      7  C   UNL     1     -48.667  33.142  25.910  1.00  0.00    -0.028 A 
ATOM      8  N   UNL     1     -45.974  33.512  25.288  1.00  0.00    -0.262 NA
ATOM      9  H   UNL     1     -46.011  31.681  24.393  1.00  0.00     0.086 H 
ATOM     10  H   UNL     1     -49.728  33.045  26.121  1.00  0.00     0.065 H 
ATOM     11  C   UNL     1     -46.668  34.434  25.990  1.00  0.00     0.034 A 
ATOM     12  H   UNL     1     -46.094  35.314  26.268  1.00  0.00     0.084 H 
BRANCH   5  13
ATOM     13  N   UNL     1     -48.608  30.929  24.812  1.00  0.00    -0.298 N 
ATOM     14  C   UNL     1     -50.396  28.884  22.490  1.00  0.00     0.137 A 
ATOM     15  N   UNL     1     -50.549  29.711  21.441  1.00  0.00    -0.219 NA
ATOM     16  C   UNL     1     -49.719  29.342  23.630  1.00  0.00     0.080 A 
ATOM     17  C   UNL     1     -50.062  30.959  21.533  1.00  0.00     0.120 A 
ATOM     18  C   UNL     1     -49.234  30.648  23.595  1.00  0.00     0.151 A 
ATOM     19  C   UNL     1     -49.373  28.817  24.895  1.00  0.00     0.072 A 
ATOM     20  N   UNL     1     -49.394  31.500  22.562  1.00  0.00    -0.218 NA
ATOM     21  H   UNL     1     -50.228  31.603  20.674  1.00  0.00     0.106 H 
ATOM     22  Cl  UNL     1     -49.704  27.246  25.456  1.00  0.00    -0.082 Cl
ATOM     23  C   UNL     1     -48.715  29.796  25.602  1.00  0.00     0.031 A 
ATOM     24  H   UNL     1     -48.290  29.748  26.593  1.00  0.00     0.084 H 
BRANCH  14  25
ATOM     25  N   UNL     1     -50.930  27.612  22.364  1.00  0.00    -0.383 N 
ATOM     26  H   UNL     1     -51.761  27.533  21.794  1.00  0.00     0.158 HD
ATOM     27  H   UNL     1     -50.924  27.117  23.248  1.00  0.00     0.158 HD
ENDBRANCH  14  25
ENDBRANCH   5  13
ENDBRANCH   1   4
BRANCH   1  28
ATOM     28  O   UNL     1     -48.217  35.595  28.450  1.00  0.00    -0.489 OA
BRANCH  28  29
ATOM     29  C   UNL     1     -47.149  36.426  28.652  1.00  0.00     0.122 A 
ATOM     30  C   UNL     1     -46.253  36.360  29.714  1.00  0.00    -0.019 A 
ATOM     31  C   UNL     1     -47.001  37.427  27.686  1.00  0.00     0.007 A 
ATOM     32  C   UNL     1     -45.236  37.313  29.815  1.00  0.00    -0.049 A 
ATOM     33  H   UNL     1     -46.317  35.594  30.478  1.00  0.00     0.066 H 
ATOM     34  C   UNL     1     -46.014  38.397  27.775  1.00  0.00     0.076 A 
ATOM     35  H   UNL     1     -47.703  37.474  26.857  1.00  0.00     0.069 H 
ATOM     36  C   UNL     1     -45.119  38.333  28.858  1.00  0.00     0.001 A 
ATOM     37  H   UNL     1     -44.545  37.261  30.653  1.00  0.00     0.063 H 
ATOM     38  N   UNL     1     -45.956  39.364  26.842  1.00  0.00    -0.231 NA
ATOM     39  C   UNL     1     -44.135  39.320  28.943  1.00  0.00    -0.049 A 
ATOM     40  C   UNL     1     -44.998  40.315  26.933  1.00  0.00     0.129 A 
ATOM     41  C   UNL     1     -44.077  40.319  27.976  1.00  0.00    -0.019 A 
ATOM     42  H   UNL     1     -43.420  39.327  29.761  1.00  0.00     0.063 H 
ATOM     43  H   UNL     1     -43.328  41.098  28.049  1.00  0.00     0.066 H 
BRANCH  40  44
ATOM     44  N   UNL     1     -44.969  41.335  25.965  1.00  0.00    -0.356 N 
ATOM     45  C   UNL     1     -43.861  42.222  25.757  1.00  0.00     0.021 C 
ATOM     46  C   UNL     1     -45.929  42.387  25.803  1.00  0.00     0.021 C 
ATOM     47  C   UNL     1     -44.845  43.135  25.018  1.00  0.00    -0.018 C 
ATOM     48  H   UNL     1     -43.064  41.787  25.148  1.00  0.00     0.049 H 
ATOM     49  H   UNL     1     -43.459  42.635  26.687  1.00  0.00     0.049 H 
ATOM     50  H   UNL     1     -46.811  42.093  25.230  1.00  0.00     0.049 H 
ATOM     51  H   UNL     1     -46.218  42.854  26.751  1.00  0.00     0.049 H 
ATOM     52  H   UNL     1     -44.755  44.203  25.228  1.00  0.00     0.030 H 
ATOM     53  H   UNL     1     -44.882  42.976  23.934  1.00  0.00     0.030 H 
ENDBRANCH  40  44
ENDBRANCH  28  29
ENDBRANCH   1  28
TORSDOF 6
ENDMDL
MODEL 7
REMARK VINA RESULT:      -9.6      3.345     11.263
REMARK SMILES Nc1ncnc2c1c(Cl)cn2-c1cncc(COc2ccc3ccc(N4CCC4)nc3c2)c1
REMARK SMILES IDX 17 1 16 4 12 5 13 6 33 7 14 8 15 11 11 13 2 14 3 15 7 16
REMARK SMILES IDX 4 17 6 18 8 19 5 20 9 22 10 23 1 25 18 28 19 29 20 30 32 31
REMARK SMILES IDX 21 32 31 34 22 36 30 38 23 39 25 40 24 41 26 44 27 45 29 46
REMARK SMILES IDX 28 47
REMARK H PARENT 17 2 17 3 13 9 33 10 15 12 4 21 10 24 1 26 1 27 20 33 32 35
REMARK H PARENT 21 37 23 42 24 43 27 48 27 49 29 50 29 51 28 52 28 53
REMARK Flexibility Score: inf
ROOT
ATOM      1  C   UNL     1     -46.447  34.674  27.794  1.00  0.00     0.115 C 
ATOM      2  H   UNL     1     -46.287  34.374  28.837  1.00  0.00     0.076 H 
ATOM      3  H   UNL     1     -45.498  34.494  27.276  1.00  0.00     0.076 H 
ENDROOT
BRANCH   1   4
ATOM      4  C   UNL     1     -46.807  36.141  27.805  1.00  0.00     0.010 A 
ATOM      5  C   UNL     1     -46.274  38.503  27.568  1.00  0.00     0.066 A 
ATOM      6  C   UNL     1     -47.614  38.764  27.830  1.00  0.00     0.051 A 
ATOM      7  C   UNL     1     -45.884  37.161  27.532  1.00  0.00    -0.028 A 
ATOM      8  N   UNL     1     -48.544  37.807  28.068  1.00  0.00    -0.262 NA
ATOM      9  H   UNL     1     -48.019  39.769  27.897  1.00  0.00     0.086 H 
ATOM     10  H   UNL     1     -44.867  36.882  27.277  1.00  0.00     0.065 H 
ATOM     11  C   UNL     1     -48.119  36.525  28.054  1.00  0.00     0.034 A 
ATOM     12  H   UNL     1     -48.896  35.791  28.253  1.00  0.00     0.084 H 
BRANCH   5  13
ATOM     13  N   UNL     1     -45.345  39.567  27.356  1.00  0.00    -0.298 N 
ATOM     14  C   UNL     1     -42.516  41.547  28.276  1.00  0.00     0.137 A 
ATOM     15  N   UNL     1     -42.134  40.979  29.434  1.00  0.00    -0.219 NA
ATOM     16  C   UNL     1     -43.624  41.028  27.591  1.00  0.00     0.080 A 
ATOM     17  C   UNL     1     -42.847  39.942  29.903  1.00  0.00     0.120 A 
ATOM     18  C   UNL     1     -44.265  39.931  28.165  1.00  0.00     0.151 A 
ATOM     19  C   UNL     1     -44.328  41.331  26.404  1.00  0.00     0.072 A 
ATOM     20  N   UNL     1     -43.911  39.360  29.333  1.00  0.00    -0.218 NA
ATOM     21  H   UNL     1     -42.520  39.527  30.852  1.00  0.00     0.106 H 
ATOM     22  Cl  UNL     1     -43.954  42.571  25.302  1.00  0.00    -0.082 Cl
ATOM     23  C   UNL     1     -45.375  40.446  26.287  1.00  0.00     0.031 A 
ATOM     24  H   UNL     1     -46.110  40.365  25.500  1.00  0.00     0.084 H 
BRANCH  14  25
ATOM     25  N   UNL     1     -41.768  42.627  27.835  1.00  0.00    -0.383 N 
ATOM     26  H   UNL     1     -42.287  43.384  27.413  1.00  0.00     0.158 HD
ATOM     27  H   UNL     1     -40.921  42.325  27.367  1.00  0.00     0.158 HD
ENDBRANCH  14  25
ENDBRANCH   5  13
ENDBRANCH   1   4
BRANCH   1  28
ATOM     28  O   UNL     1     -47.466  33.803  27.290  1.00  0.00    -0.489 OA
BRANCH  28  29
ATOM     29  C   UNL     1     -47.185  33.044  26.187  1.00  0.00     0.122 A 
ATOM     30  C   UNL     1     -46.309  33.386  25.162  1.00  0.00    -0.019 A 
ATOM     31  C   UNL     1     -47.883  31.833  26.122  1.00  0.00     0.007 A 
ATOM     32  C   UNL     1     -46.162  32.529  24.069  1.00  0.00    -0.049 A 
ATOM     33  H   UNL     1     -45.735  34.305  25.175  1.00  0.00     0.066 H 
ATOM     34  C   UNL     1     -47.771  30.975  25.039  1.00  0.00     0.076 A 
ATOM     35  H   UNL     1     -48.566  31.569  26.926  1.00  0.00     0.069 H 
ATOM     36  C   UNL     1     -46.894  31.333  23.999  1.00  0.00     0.001 A 
ATOM     37  H   UNL     1     -45.483  32.807  23.267  1.00  0.00     0.063 H 
ATOM     38  N   UNL     1     -48.508  29.850  25.011  1.00  0.00    -0.231 NA
ATOM     39  C   UNL     1     -46.795  30.466  22.908  1.00  0.00    -0.049 A 
ATOM     40  C   UNL     1     -48.405  29.017  23.950  1.00  0.00     0.129 A 
ATOM     41  C   UNL     1     -47.558  29.302  22.883  1.00  0.00    -0.019 A 
ATOM     42  H   UNL     1     -46.139  30.693  22.072  1.00  0.00     0.063 H 
ATOM     43  H   UNL     1     -47.500  28.638  22.030  1.00  0.00     0.066 H 
BRANCH  40  44
ATOM     44  N   UNL     1     -49.203  27.859  23.925  1.00  0.00    -0.356 N 
ATOM     45  C   UNL     1     -50.132  27.539  22.879  1.00  0.00     0.021 C 
ATOM     46  C   UNL     1     -50.103  27.420  24.951  1.00  0.00     0.021 C 
ATOM     47  C   UNL     1     -50.776  26.564  23.870  1.00  0.00    -0.018 C 
ATOM     48  H   UNL     1     -49.661  27.088  22.002  1.00  0.00     0.049 H 
ATOM     49  H   UNL     1     -50.763  28.386  22.589  1.00  0.00     0.049 H 
ATOM     50  H   UNL     1     -49.614  26.867  25.756  1.00  0.00     0.049 H 
ATOM     51  H   UNL     1     -50.723  28.228  25.352  1.00  0.00     0.049 H 
ATOM     52  H   UNL     1     -51.868  26.550  23.885  1.00  0.00     0.030 H 
ATOM     53  H   UNL     1     -50.396  25.538  23.805  1.00  0.00     0.030 H 
ENDBRANCH  40  44
ENDBRANCH  28  29
ENDBRANCH   1  28
TORSDOF 6
ENDMDL
