MODEL 1
REMARK VINA RESULT:     -10.5      0.000      0.000
REMARK SMILES Nc1ncnc2c1c(Cl)cn2-c1nnc(COc2ccc3ccc(N4CCCC4)nc3c2)s1
REMARK SMILES IDX 16 1 15 4 12 5 13 6 33 7 14 8 11 9 2 10 3 11 7 12 4 13 6 14
REMARK SMILES IDX 8 15 5 16 9 18 10 19 1 21 17 24 18 25 19 26 32 27 20 28
REMARK SMILES IDX 31 30 21 32 30 34 22 35 24 36 23 37 25 40 26 41 29 42 27 43
REMARK SMILES IDX 28 46
REMARK H PARENT 16 2 16 3 4 17 10 20 1 22 1 23 19 29 32 31 20 33 22 38 23 39
REMARK H PARENT 26 44 26 45 29 47 29 48 27 49 27 50 28 51 28 52
REMARK Flexibility Score: inf
ROOT
ATOM      1  C   UNL     1     -47.619  36.104  26.874  1.00  0.00     0.142 C 
ATOM      2  H   UNL     1     -48.677  36.384  26.823  1.00  0.00     0.078 H 
ATOM      3  H   UNL     1     -47.012  36.844  26.338  1.00  0.00     0.078 H 
ENDROOT
BRANCH   1   4
ATOM      4  C   UNL     1     -47.440  34.761  26.243  1.00  0.00     0.156 A 
ATOM      5  C   UNL     1     -47.656  32.561  25.404  1.00  0.00     0.218 A 
ATOM      6  N   UNL     1     -46.444  33.037  25.216  1.00  0.00    -0.119 NA
ATOM      7  S   UNL     1     -48.725  33.614  26.201  1.00  0.00    -0.075 S 
ATOM      8  N   UNL     1     -46.317  34.320  25.710  1.00  0.00    -0.138 NA
BRANCH   5   9
ATOM      9  N   UNL     1     -48.031  31.278  24.982  1.00  0.00    -0.274 N 
ATOM     10  C   UNL     1     -48.566  28.680  22.588  1.00  0.00     0.137 A 
ATOM     11  N   UNL     1     -48.226  29.284  21.436  1.00  0.00    -0.219 NA
ATOM     12  C   UNL     1     -48.493  29.405  23.786  1.00  0.00     0.080 A 
ATOM     13  C   UNL     1     -47.810  30.559  21.481  1.00  0.00     0.120 A 
ATOM     14  C   UNL     1     -48.046  30.723  23.701  1.00  0.00     0.153 A 
ATOM     15  C   UNL     1     -48.766  29.154  25.152  1.00  0.00     0.072 A 
ATOM     16  N   UNL     1     -47.695  31.347  22.558  1.00  0.00    -0.218 NA
ATOM     17  H   UNL     1     -47.535  31.005  20.529  1.00  0.00     0.106 H 
ATOM     18  Cl  UNL     1     -49.351  27.701  25.810  1.00  0.00    -0.082 Cl
ATOM     19  C   UNL     1     -48.482  30.296  25.856  1.00  0.00     0.033 A 
ATOM     20  H   UNL     1     -48.558  30.508  26.915  1.00  0.00     0.084 H 
BRANCH  10  21
ATOM     21  N   UNL     1     -48.981  27.363  22.503  1.00  0.00    -0.383 N 
ATOM     22  H   UNL     1     -48.758  26.872  21.647  1.00  0.00     0.158 HD
ATOM     23  H   UNL     1     -48.851  26.863  23.375  1.00  0.00     0.158 HD
ENDBRANCH  10  21
ENDBRANCH   5   9
ENDBRANCH   1   4
BRANCH   1  24
ATOM     24  O   UNL     1     -47.204  35.997  28.236  1.00  0.00    -0.486 OA
BRANCH  24  25
ATOM     25  C   UNL     1     -46.261  36.885  28.672  1.00  0.00     0.122 A 
ATOM     26  C   UNL     1     -45.655  36.888  29.924  1.00  0.00    -0.019 A 
ATOM     27  C   UNL     1     -45.902  37.861  27.734  1.00  0.00     0.007 A 
ATOM     28  C   UNL     1     -44.703  37.863  30.228  1.00  0.00    -0.049 A 
ATOM     29  H   UNL     1     -45.888  36.151  30.686  1.00  0.00     0.066 H 
ATOM     30  C   UNL     1     -44.961  38.843  28.011  1.00  0.00     0.076 A 
ATOM     31  H   UNL     1     -46.372  37.857  26.753  1.00  0.00     0.069 H 
ATOM     32  C   UNL     1     -44.356  38.839  29.278  1.00  0.00     0.001 A 
ATOM     33  H   UNL     1     -44.231  37.858  31.209  1.00  0.00     0.063 H 
ATOM     34  N   UNL     1     -44.658  39.757  27.071  1.00  0.00    -0.231 NA
ATOM     35  C   UNL     1     -43.407  39.826  29.544  1.00  0.00    -0.049 A 
ATOM     36  C   UNL     1     -43.748  40.724  27.331  1.00  0.00     0.129 A 
ATOM     37  C   UNL     1     -43.102  40.767  28.563  1.00  0.00    -0.019 A 
ATOM     38  H   UNL     1     -42.897  39.870  30.501  1.00  0.00     0.063 H 
ATOM     39  H   UNL     1     -42.347  41.517  28.768  1.00  0.00     0.066 H 
BRANCH  36  40
ATOM     40  N   UNL     1     -43.456  41.629  26.334  1.00  0.00    -0.357 N 
ATOM     41  C   UNL     1     -44.432  41.847  25.273  1.00  0.00     0.019 C 
ATOM     42  C   UNL     1     -42.624  42.807  26.547  1.00  0.00     0.019 C 
ATOM     43  C   UNL     1     -43.812  42.987  24.470  1.00  0.00    -0.034 C 
ATOM     44  H   UNL     1     -45.399  42.162  25.684  1.00  0.00     0.049 H 
ATOM     45  H   UNL     1     -44.574  40.958  24.648  1.00  0.00     0.049 H 
ATOM     46  C   UNL     1     -43.165  43.837  25.553  1.00  0.00    -0.034 C 
ATOM     47  H   UNL     1     -41.579  42.564  26.322  1.00  0.00     0.049 H 
ATOM     48  H   UNL     1     -42.687  43.205  27.565  1.00  0.00     0.049 H 
ATOM     49  H   UNL     1     -44.551  43.538  23.883  1.00  0.00     0.029 H 
ATOM     50  H   UNL     1     -43.044  42.599  23.789  1.00  0.00     0.029 H 
ATOM     51  H   UNL     1     -43.925  44.461  26.040  1.00  0.00     0.029 H 
ATOM     52  H   UNL     1     -42.382  44.496  25.166  1.00  0.00     0.029 H 
ENDBRANCH  36  40
ENDBRANCH  24  25
ENDBRANCH   1  24
TORSDOF 6
ENDMDL
MODEL 2
REMARK VINA RESULT:     -10.1      1.674      2.062
REMARK SMILES Nc1ncnc2c1c(Cl)cn2-c1nnc(COc2ccc3ccc(N4CCCC4)nc3c2)s1
REMARK SMILES IDX 16 1 15 4 12 5 13 6 33 7 14 8 11 9 2 10 3 11 7 12 4 13 6 14
REMARK SMILES IDX 8 15 5 16 9 18 10 19 1 21 17 24 18 25 19 26 32 27 20 28
REMARK SMILES IDX 31 30 21 32 30 34 22 35 24 36 23 37 25 40 26 41 29 42 27 43
REMARK SMILES IDX 28 46
REMARK H PARENT 16 2 16 3 4 17 10 20 1 22 1 23 19 29 32 31 20 33 22 38 23 39
REMARK H PARENT 26 44 26 45 29 47 29 48 27 49 27 50 28 51 28 52
REMARK Flexibility Score: inf
ROOT
ATOM      1  C   UNL     1     -47.370  36.824  27.573  1.00  0.00     0.142 C 
ATOM      2  H   UNL     1     -48.275  37.309  27.956  1.00  0.00     0.078 H 
ATOM      3  H   UNL     1     -46.905  37.455  26.806  1.00  0.00     0.078 H 
ENDROOT
BRANCH   1   4
ATOM      4  C   UNL     1     -47.740  35.504  26.977  1.00  0.00     0.156 A 
ATOM      5  C   UNL     1     -47.909  33.508  25.721  1.00  0.00     0.218 A 
ATOM      6  N   UNL     1     -48.890  33.621  26.591  1.00  0.00    -0.119 NA
ATOM      7  S   UNL     1     -46.810  34.804  25.707  1.00  0.00    -0.075 S 
ATOM      8  N   UNL     1     -48.794  34.789  27.321  1.00  0.00    -0.138 NA
BRANCH   5   9
ATOM      9  N   UNL     1     -47.788  32.403  24.868  1.00  0.00    -0.274 N 
ATOM     10  C   UNL     1     -49.004  29.735  22.826  1.00  0.00     0.137 A 
ATOM     11  N   UNL     1     -50.335  29.852  22.972  1.00  0.00    -0.219 NA
ATOM     12  C   UNL     1     -48.161  30.629  23.503  1.00  0.00     0.080 A 
ATOM     13  C   UNL     1     -50.808  30.837  23.752  1.00  0.00     0.120 A 
ATOM     14  C   UNL     1     -48.775  31.608  24.283  1.00  0.00     0.153 A 
ATOM     15  C   UNL     1     -46.766  30.826  23.623  1.00  0.00     0.072 A 
ATOM     16  N   UNL     1     -50.107  31.747  24.440  1.00  0.00    -0.218 NA
ATOM     17  H   UNL     1     -51.889  30.902  23.835  1.00  0.00     0.106 H 
ATOM     18  Cl  UNL     1     -45.550  29.896  22.884  1.00  0.00    -0.082 Cl
ATOM     19  C   UNL     1     -46.561  31.900  24.452  1.00  0.00     0.033 A 
ATOM     20  H   UNL     1     -45.643  32.364  24.790  1.00  0.00     0.084 H 
BRANCH  10  21
ATOM     21  N   UNL     1     -48.554  28.714  22.008  1.00  0.00    -0.383 N 
ATOM     22  H   UNL     1     -48.478  27.797  22.427  1.00  0.00     0.158 HD
ATOM     23  H   UNL     1     -48.944  28.770  21.075  1.00  0.00     0.158 HD
ENDBRANCH  10  21
ENDBRANCH   5   9
ENDBRANCH   1   4
BRANCH   1  24
ATOM     24  O   UNL     1     -46.458  36.570  28.642  1.00  0.00    -0.486 OA
BRANCH  24  25
ATOM     25  C   UNL     1     -45.529  37.536  28.912  1.00  0.00     0.122 A 
ATOM     26  C   UNL     1     -44.722  37.604  30.043  1.00  0.00    -0.019 A 
ATOM     27  C   UNL     1     -45.412  38.523  27.926  1.00  0.00     0.007 A 
ATOM     28  C   UNL     1     -43.814  38.656  30.180  1.00  0.00    -0.049 A 
ATOM     29  H   UNL     1     -44.764  36.863  30.834  1.00  0.00     0.066 H 
ATOM     30  C   UNL     1     -44.519  39.580  28.038  1.00  0.00     0.076 A 
ATOM     31  H   UNL     1     -46.038  38.468  27.038  1.00  0.00     0.069 H 
ATOM     32  C   UNL     1     -43.710  39.642  29.184  1.00  0.00     0.001 A 
ATOM     33  H   UNL     1     -43.184  38.702  31.067  1.00  0.00     0.063 H 
ATOM     34  N   UNL     1     -44.452  40.501  27.060  1.00  0.00    -0.231 NA
ATOM     35  C   UNL     1     -42.812  40.704  29.285  1.00  0.00    -0.049 A 
ATOM     36  C   UNL     1     -43.592  41.540  27.161  1.00  0.00     0.129 A 
ATOM     37  C   UNL     1     -42.753  41.652  28.266  1.00  0.00    -0.019 A 
ATOM     38  H   UNL     1     -42.153  40.801  30.142  1.00  0.00     0.063 H 
ATOM     39  H   UNL     1     -42.036  42.461  28.339  1.00  0.00     0.066 H 
BRANCH  36  40
ATOM     40  N   UNL     1     -43.545  42.450  26.128  1.00  0.00    -0.357 N 
ATOM     41  C   UNL     1     -42.262  43.044  25.770  1.00  0.00     0.019 C 
ATOM     42  C   UNL     1     -44.452  42.408  24.987  1.00  0.00     0.019 C 
ATOM     43  C   UNL     1     -42.602  43.865  24.530  1.00  0.00    -0.034 C 
ATOM     44  H   UNL     1     -41.526  42.271  25.517  1.00  0.00     0.049 H 
ATOM     45  H   UNL     1     -41.862  43.682  26.566  1.00  0.00     0.049 H 
ATOM     46  C   UNL     1     -43.636  42.995  23.833  1.00  0.00    -0.034 C 
ATOM     47  H   UNL     1     -45.331  43.028  25.193  1.00  0.00     0.049 H 
ATOM     48  H   UNL     1     -44.781  41.395  24.732  1.00  0.00     0.049 H 
ATOM     49  H   UNL     1     -41.727  44.066  23.907  1.00  0.00     0.029 H 
ATOM     50  H   UNL     1     -43.051  44.823  24.819  1.00  0.00     0.029 H 
ATOM     51  H   UNL     1     -43.135  42.189  23.284  1.00  0.00     0.029 H 
ATOM     52  H   UNL     1     -44.256  43.553  23.125  1.00  0.00     0.029 H 
ENDBRANCH  36  40
ENDBRANCH  24  25
ENDBRANCH   1  24
TORSDOF 6
ENDMDL
MODEL 3
REMARK VINA RESULT:      -9.9      1.846      2.320
REMARK SMILES Nc1ncnc2c1c(Cl)cn2-c1nnc(COc2ccc3ccc(N4CCCC4)nc3c2)s1
REMARK SMILES IDX 16 1 15 4 12 5 13 6 33 7 14 8 11 9 2 10 3 11 7 12 4 13 6 14
REMARK SMILES IDX 8 15 5 16 9 18 10 19 1 21 17 24 18 25 19 26 32 27 20 28
REMARK SMILES IDX 31 30 21 32 30 34 22 35 24 36 23 37 25 40 26 41 29 42 27 43
REMARK SMILES IDX 28 46
REMARK H PARENT 16 2 16 3 4 17 10 20 1 22 1 23 19 29 32 31 20 33 22 38 23 39
REMARK H PARENT 26 44 26 45 29 47 29 48 27 49 27 50 28 51 28 52
REMARK Flexibility Score: inf
ROOT
ATOM      1  C   UNL     1     -45.306  35.584  27.892  1.00  0.00     0.142 C 
ATOM      2  H   UNL     1     -44.938  36.209  27.071  1.00  0.00     0.078 H 
ATOM      3  H   UNL     1     -44.465  35.256  28.514  1.00  0.00     0.078 H 
ENDROOT
BRANCH   1   4
ATOM      4  C   UNL     1     -46.001  34.390  27.322  1.00  0.00     0.156 A 
ATOM      5  C   UNL     1     -47.157  32.811  25.995  1.00  0.00     0.218 A 
ATOM      6  N   UNL     1     -46.911  32.346  27.202  1.00  0.00    -0.119 NA
ATOM      7  S   UNL     1     -46.614  34.396  25.711  1.00  0.00    -0.075 S 
ATOM      8  N   UNL     1     -46.240  33.271  27.977  1.00  0.00    -0.138 NA
BRANCH   5   9
ATOM      9  N   UNL     1     -47.823  32.054  25.022  1.00  0.00    -0.274 N 
ATOM     10  C   UNL     1     -48.057  30.041  22.078  1.00  0.00     0.137 A 
ATOM     11  N   UNL     1     -46.778  29.999  21.664  1.00  0.00    -0.219 NA
ATOM     12  C   UNL     1     -48.375  30.767  23.236  1.00  0.00     0.080 A 
ATOM     13  C   UNL     1     -45.850  30.642  22.388  1.00  0.00     0.120 A 
ATOM     14  C   UNL     1     -47.321  31.393  23.900  1.00  0.00     0.153 A 
ATOM     15  C   UNL     1     -49.550  31.062  23.966  1.00  0.00     0.072 A 
ATOM     16  N   UNL     1     -46.032  31.359  23.505  1.00  0.00    -0.218 NA
ATOM     17  H   UNL     1     -44.829  30.574  22.024  1.00  0.00     0.106 H 
ATOM     18  Cl  UNL     1     -51.127  30.556  23.584  1.00  0.00    -0.082 Cl
ATOM     19  C   UNL     1     -49.196  31.841  25.038  1.00  0.00     0.033 A 
ATOM     20  H   UNL     1     -49.801  32.270  25.828  1.00  0.00     0.084 H 
BRANCH  10  21
ATOM     21  N   UNL     1     -48.984  29.358  21.312  1.00  0.00    -0.383 N 
ATOM     22  H   UNL     1     -49.619  29.921  20.762  1.00  0.00     0.158 HD
ATOM     23  H   UNL     1     -48.588  28.536  20.873  1.00  0.00     0.158 HD
ENDBRANCH  10  21
ENDBRANCH   5   9
ENDBRANCH   1   4
BRANCH   1  24
ATOM     24  O   UNL     1     -46.261  36.305  28.669  1.00  0.00    -0.486 OA
BRANCH  24  25
ATOM     25  C   UNL     1     -46.651  37.529  28.201  1.00  0.00     0.122 A 
ATOM     26  C   UNL     1     -47.935  38.061  28.265  1.00  0.00    -0.019 A 
ATOM     27  C   UNL     1     -45.626  38.281  27.613  1.00  0.00     0.007 A 
ATOM     28  C   UNL     1     -48.182  39.332  27.741  1.00  0.00    -0.049 A 
ATOM     29  H   UNL     1     -48.764  37.528  28.716  1.00  0.00     0.066 H 
ATOM     30  C   UNL     1     -45.845  39.545  27.083  1.00  0.00     0.076 A 
ATOM     31  H   UNL     1     -44.620  37.868  27.567  1.00  0.00     0.069 H 
ATOM     32  C   UNL     1     -47.144  40.073  27.151  1.00  0.00     0.001 A 
ATOM     33  H   UNL     1     -49.188  39.743  27.797  1.00  0.00     0.063 H 
ATOM     34  N   UNL     1     -44.822  40.220  26.527  1.00  0.00    -0.231 NA
ATOM     35  C   UNL     1     -47.353  41.346  26.620  1.00  0.00    -0.049 A 
ATOM     36  C   UNL     1     -45.023  41.449  26.000  1.00  0.00     0.129 A 
ATOM     37  C   UNL     1     -46.286  42.034  26.048  1.00  0.00    -0.019 A 
ATOM     38  H   UNL     1     -48.333  41.813  26.652  1.00  0.00     0.063 H 
ATOM     39  H   UNL     1     -46.450  43.033  25.659  1.00  0.00     0.066 H 
BRANCH  36  40
ATOM     40  N   UNL     1     -43.944  42.111  25.458  1.00  0.00    -0.357 N 
ATOM     41  C   UNL     1     -44.102  42.780  24.172  1.00  0.00     0.019 C 
ATOM     42  C   UNL     1     -42.909  42.742  26.267  1.00  0.00     0.019 C 
ATOM     43  C   UNL     1     -42.764  43.489  23.991  1.00  0.00    -0.034 C 
ATOM     44  H   UNL     1     -44.914  43.517  24.207  1.00  0.00     0.049 H 
ATOM     45  H   UNL     1     -44.287  42.074  23.355  1.00  0.00     0.049 H 
ATOM     46  C   UNL     1     -42.423  43.914  25.410  1.00  0.00    -0.034 C 
ATOM     47  H   UNL     1     -42.095  42.030  26.444  1.00  0.00     0.049 H 
ATOM     48  H   UNL     1     -43.276  43.113  27.229  1.00  0.00     0.049 H 
ATOM     49  H   UNL     1     -42.825  44.332  23.298  1.00  0.00     0.029 H 
ATOM     50  H   UNL     1     -42.008  42.787  23.618  1.00  0.00     0.029 H 
ATOM     51  H   UNL     1     -42.981  44.822  25.671  1.00  0.00     0.029 H 
ATOM     52  H   UNL     1     -41.357  44.120  25.550  1.00  0.00     0.029 H 
ENDBRANCH  36  40
ENDBRANCH  24  25
ENDBRANCH   1  24
TORSDOF 6
ENDMDL
MODEL 4
REMARK VINA RESULT:      -9.8      1.670      1.999
REMARK SMILES Nc1ncnc2c1c(Cl)cn2-c1nnc(COc2ccc3ccc(N4CCCC4)nc3c2)s1
REMARK SMILES IDX 16 1 15 4 12 5 13 6 33 7 14 8 11 9 2 10 3 11 7 12 4 13 6 14
REMARK SMILES IDX 8 15 5 16 9 18 10 19 1 21 17 24 18 25 19 26 32 27 20 28
REMARK SMILES IDX 31 30 21 32 30 34 22 35 24 36 23 37 25 40 26 41 29 42 27 43
REMARK SMILES IDX 28 46
REMARK H PARENT 16 2 16 3 4 17 10 20 1 22 1 23 19 29 32 31 20 33 22 38 23 39
REMARK H PARENT 26 44 26 45 29 47 29 48 27 49 27 50 28 51 28 52
REMARK Flexibility Score: inf
ROOT
ATOM      1  C   UNL     1     -46.475  35.981  28.980  1.00  0.00     0.142 C 
ATOM      2  H   UNL     1     -45.640  35.764  29.656  1.00  0.00     0.078 H 
ATOM      3  H   UNL     1     -47.377  36.204  29.563  1.00  0.00     0.078 H 
ENDROOT
BRANCH   1   4
ATOM      4  C   UNL     1     -46.722  34.790  28.113  1.00  0.00     0.156 A 
ATOM      5  C   UNL     1     -47.477  33.216  26.517  1.00  0.00     0.218 A 
ATOM      6  N   UNL     1     -46.561  32.703  27.312  1.00  0.00    -0.119 NA
ATOM      7  S   UNL     1     -47.889  34.832  26.846  1.00  0.00    -0.075 S 
ATOM      8  N   UNL     1     -46.124  33.621  28.246  1.00  0.00    -0.138 NA
BRANCH   5   9
ATOM      9  N   UNL     1     -48.070  32.479  25.483  1.00  0.00    -0.274 N 
ATOM     10  C   UNL     1     -48.083  30.470  22.528  1.00  0.00     0.137 A 
ATOM     11  N   UNL     1     -46.773  30.386  22.239  1.00  0.00    -0.219 NA
ATOM     12  C   UNL     1     -48.488  31.208  23.651  1.00  0.00     0.080 A 
ATOM     13  C   UNL     1     -45.898  31.001  23.051  1.00  0.00     0.120 A 
ATOM     14  C   UNL     1     -47.484  31.801  24.414  1.00  0.00     0.153 A 
ATOM     15  C   UNL     1     -49.718  31.542  24.265  1.00  0.00     0.072 A 
ATOM     16  N   UNL     1     -46.164  31.725  24.145  1.00  0.00    -0.218 NA
ATOM     17  H   UNL     1     -44.849  30.899  22.786  1.00  0.00     0.106 H 
ATOM     18  Cl  UNL     1     -51.266  31.085  23.731  1.00  0.00    -0.082 Cl
ATOM     19  C   UNL     1     -49.445  32.310  25.367  1.00  0.00     0.033 A 
ATOM     20  H   UNL     1     -50.109  32.759  26.095  1.00  0.00     0.084 H 
BRANCH  10  21
ATOM     21  N   UNL     1     -48.953  29.816  21.675  1.00  0.00    -0.383 N 
ATOM     22  H   UNL     1     -49.807  29.459  22.085  1.00  0.00     0.158 HD
ATOM     23  H   UNL     1     -49.024  30.273  20.775  1.00  0.00     0.158 HD
ENDBRANCH  10  21
ENDBRANCH   5   9
ENDBRANCH   1   4
BRANCH   1  24
ATOM     24  O   UNL     1     -46.142  37.073  28.124  1.00  0.00    -0.486 OA
BRANCH  24  25
ATOM     25  C   UNL     1     -45.216  37.968  28.585  1.00  0.00     0.122 A 
ATOM     26  C   UNL     1     -44.449  37.833  29.738  1.00  0.00    -0.019 A 
ATOM     27  C   UNL     1     -45.059  39.108  27.786  1.00  0.00     0.007 A 
ATOM     28  C   UNL     1     -43.539  38.835  30.082  1.00  0.00    -0.049 A 
ATOM     29  H   UNL     1     -44.523  36.969  30.388  1.00  0.00     0.066 H 
ATOM     30  C   UNL     1     -44.164  40.119  28.107  1.00  0.00     0.076 A 
ATOM     31  H   UNL     1     -45.655  39.211  26.882  1.00  0.00     0.069 H 
ATOM     32  C   UNL     1     -43.396  39.975  29.273  1.00  0.00     0.001 A 
ATOM     33  H   UNL     1     -42.941  38.722  30.984  1.00  0.00     0.063 H 
ATOM     34  N   UNL     1     -44.058  41.192  27.303  1.00  0.00    -0.231 NA
ATOM     35  C   UNL     1     -42.495  40.994  29.583  1.00  0.00    -0.049 A 
ATOM     36  C   UNL     1     -43.196  42.189  27.608  1.00  0.00     0.129 A 
ATOM     37  C   UNL     1     -42.395  42.100  28.743  1.00  0.00    -0.019 A 
ATOM     38  H   UNL     1     -41.865  40.936  30.466  1.00  0.00     0.063 H 
ATOM     39  H   UNL     1     -41.676  42.877  28.978  1.00  0.00     0.066 H 
BRANCH  36  40
ATOM     40  N   UNL     1     -43.107  43.261  26.748  1.00  0.00    -0.357 N 
ATOM     41  C   UNL     1     -42.852  43.010  25.334  1.00  0.00     0.019 C 
ATOM     42  C   UNL     1     -43.842  44.504  26.947  1.00  0.00     0.019 C 
ATOM     43  C   UNL     1     -42.962  44.401  24.717  1.00  0.00    -0.034 C 
ATOM     44  H   UNL     1     -43.615  42.349  24.905  1.00  0.00     0.049 H 
ATOM     45  H   UNL     1     -41.859  42.581  25.160  1.00  0.00     0.049 H 
ATOM     46  C   UNL     1     -44.080  45.034  25.531  1.00  0.00    -0.034 C 
ATOM     47  H   UNL     1     -43.228  45.205  27.523  1.00  0.00     0.049 H 
ATOM     48  H   UNL     1     -44.801  44.364  27.458  1.00  0.00     0.049 H 
ATOM     49  H   UNL     1     -43.181  44.370  23.647  1.00  0.00     0.029 H 
ATOM     50  H   UNL     1     -42.029  44.959  24.866  1.00  0.00     0.029 H 
ATOM     51  H   UNL     1     -45.053  44.684  25.162  1.00  0.00     0.029 H 
ATOM     52  H   UNL     1     -44.074  46.127  25.487  1.00  0.00     0.029 H 
ENDBRANCH  36  40
ENDBRANCH  24  25
ENDBRANCH   1  24
TORSDOF 6
ENDMDL
MODEL 5
REMARK VINA RESULT:      -9.8      3.413     11.408
REMARK SMILES Nc1ncnc2c1c(Cl)cn2-c1nnc(COc2ccc3ccc(N4CCCC4)nc3c2)s1
REMARK SMILES IDX 16 1 15 4 12 5 13 6 33 7 14 8 11 9 2 10 3 11 7 12 4 13 6 14
REMARK SMILES IDX 8 15 5 16 9 18 10 19 1 21 17 24 18 25 19 26 32 27 20 28
REMARK SMILES IDX 31 30 21 32 30 34 22 35 24 36 23 37 25 40 26 41 29 42 27 43
REMARK SMILES IDX 28 46
REMARK H PARENT 16 2 16 3 4 17 10 20 1 22 1 23 19 29 32 31 20 33 22 38 23 39
REMARK H PARENT 26 44 26 45 29 47 29 48 27 49 27 50 28 51 28 52
REMARK Flexibility Score: inf
ROOT
ATOM      1  C   UNL     1     -47.913  35.660  28.493  1.00  0.00     0.142 C 
ATOM      2  H   UNL     1     -48.659  36.061  29.189  1.00  0.00     0.078 H 
ATOM      3  H   UNL     1     -47.504  34.722  28.886  1.00  0.00     0.078 H 
ENDROOT
BRANCH   1   4
ATOM      4  C   UNL     1     -46.812  36.657  28.332  1.00  0.00     0.156 A 
ATOM      5  C   UNL     1     -45.417  38.480  27.765  1.00  0.00     0.218 A 
ATOM      6  N   UNL     1     -44.791  37.606  28.524  1.00  0.00    -0.119 NA
ATOM      7  S   UNL     1     -47.021  38.076  27.378  1.00  0.00    -0.075 S 
ATOM      8  N   UNL     1     -45.604  36.539  28.851  1.00  0.00    -0.138 NA
BRANCH   5   9
ATOM      9  N   UNL     1     -44.800  39.653  27.308  1.00  0.00    -0.274 N 
ATOM     10  C   UNL     1     -42.530  42.406  27.493  1.00  0.00     0.137 A 
ATOM     11  N   UNL     1     -41.946  42.210  28.688  1.00  0.00    -0.219 NA
ATOM     12  C   UNL     1     -43.514  41.506  27.058  1.00  0.00     0.080 A 
ATOM     13  C   UNL     1     -42.319  41.145  29.414  1.00  0.00     0.120 A 
ATOM     14  C   UNL     1     -43.814  40.439  27.905  1.00  0.00     0.153 A 
ATOM     15  C   UNL     1     -44.346  41.371  25.922  1.00  0.00     0.072 A 
ATOM     16  N   UNL     1     -43.237  40.221  29.104  1.00  0.00    -0.218 NA
ATOM     17  H   UNL     1     -41.815  41.019  30.369  1.00  0.00     0.106 H 
ATOM     18  Cl  UNL     1     -44.398  42.417  24.583  1.00  0.00    -0.082 Cl
ATOM     19  C   UNL     1     -45.115  40.248  26.093  1.00  0.00     0.033 A 
ATOM     20  H   UNL     1     -45.869  39.807  25.453  1.00  0.00     0.084 H 
BRANCH  10  21
ATOM     21  N   UNL     1     -42.113  43.508  26.768  1.00  0.00    -0.383 N 
ATOM     22  H   UNL     1     -42.044  44.382  27.273  1.00  0.00     0.158 HD
ATOM     23  H   UNL     1     -41.368  43.283  26.121  1.00  0.00     0.158 HD
ENDBRANCH  10  21
ENDBRANCH   5   9
ENDBRANCH   1   4
BRANCH   1  24
ATOM     24  O   UNL     1     -48.500  35.459  27.207  1.00  0.00    -0.486 OA
BRANCH  24  25
ATOM     25  C   UNL     1     -47.947  34.493  26.414  1.00  0.00     0.122 A 
ATOM     26  C   UNL     1     -46.707  34.558  25.787  1.00  0.00    -0.019 A 
ATOM     27  C   UNL     1     -48.740  33.350  26.249  1.00  0.00     0.007 A 
ATOM     28  C   UNL     1     -46.273  33.486  25.003  1.00  0.00    -0.049 A 
ATOM     29  H   UNL     1     -46.049  35.414  25.886  1.00  0.00     0.066 H 
ATOM     30  C   UNL     1     -48.333  32.272  25.474  1.00  0.00     0.076 A 
ATOM     31  H   UNL     1     -49.707  33.296  26.743  1.00  0.00     0.069 H 
ATOM     32  C   UNL     1     -47.081  32.347  24.844  1.00  0.00     0.001 A 
ATOM     33  H   UNL     1     -45.301  33.543  24.517  1.00  0.00     0.063 H 
ATOM     34  N   UNL     1     -49.138  31.201  25.350  1.00  0.00    -0.231 NA
ATOM     35  C   UNL     1     -46.680  31.257  24.072  1.00  0.00    -0.049 A 
ATOM     36  C   UNL     1     -48.758  30.148  24.591  1.00  0.00     0.129 A 
ATOM     37  C   UNL     1     -47.522  30.154  23.951  1.00  0.00    -0.019 A 
ATOM     38  H   UNL     1     -45.718  31.251  23.568  1.00  0.00     0.063 H 
ATOM     39  H   UNL     1     -47.193  29.301  23.369  1.00  0.00     0.066 H 
BRANCH  36  40
ATOM     40  N   UNL     1     -49.606  29.066  24.507  1.00  0.00    -0.357 N 
ATOM     41  C   UNL     1     -50.882  29.222  23.818  1.00  0.00     0.019 C 
ATOM     42  C   UNL     1     -49.134  27.687  24.453  1.00  0.00     0.019 C 
ATOM     43  C   UNL     1     -51.445  27.805  23.820  1.00  0.00    -0.034 C 
ATOM     44  H   UNL     1     -50.734  29.564  22.785  1.00  0.00     0.049 H 
ATOM     45  H   UNL     1     -51.553  29.914  24.338  1.00  0.00     0.049 H 
ATOM     46  C   UNL     1     -50.199  26.955  23.633  1.00  0.00    -0.034 C 
ATOM     47  H   UNL     1     -49.079  27.278  25.468  1.00  0.00     0.049 H 
ATOM     48  H   UNL     1     -48.156  27.582  23.971  1.00  0.00     0.049 H 
ATOM     49  H   UNL     1     -52.189  27.647  23.035  1.00  0.00     0.029 H 
ATOM     50  H   UNL     1     -51.909  27.581  24.789  1.00  0.00     0.029 H 
ATOM     51  H   UNL     1     -49.911  26.945  22.574  1.00  0.00     0.029 H 
ATOM     52  H   UNL     1     -50.336  25.919  23.957  1.00  0.00     0.029 H 
ENDBRANCH  36  40
ENDBRANCH  24  25
ENDBRANCH   1  24
TORSDOF 6
ENDMDL
MODEL 6
REMARK VINA RESULT:      -9.6      3.480     11.245
REMARK SMILES Nc1ncnc2c1c(Cl)cn2-c1nnc(COc2ccc3ccc(N4CCCC4)nc3c2)s1
REMARK SMILES IDX 16 1 15 4 12 5 13 6 33 7 14 8 11 9 2 10 3 11 7 12 4 13 6 14
REMARK SMILES IDX 8 15 5 16 9 18 10 19 1 21 17 24 18 25 19 26 32 27 20 28
REMARK SMILES IDX 31 30 21 32 30 34 22 35 24 36 23 37 25 40 26 41 29 42 27 43
REMARK SMILES IDX 28 46
REMARK H PARENT 16 2 16 3 4 17 10 20 1 22 1 23 19 29 32 31 20 33 22 38 23 39
REMARK H PARENT 26 44 26 45 29 47 29 48 27 49 27 50 28 51 28 52
REMARK Flexibility Score: inf
ROOT
ATOM      1  C   UNL     1     -48.226  36.150  28.541  1.00  0.00     0.142 C 
ATOM      2  H   UNL     1     -48.960  36.368  29.324  1.00  0.00     0.078 H 
ATOM      3  H   UNL     1     -47.481  35.438  28.917  1.00  0.00     0.078 H 
ENDROOT
BRANCH   1   4
ATOM      4  C   UNL     1     -47.546  37.419  28.141  1.00  0.00     0.156 A 
ATOM      5  C   UNL     1     -46.058  39.217  27.764  1.00  0.00     0.218 A 
ATOM      6  N   UNL     1     -47.257  39.467  27.280  1.00  0.00    -0.119 NA
ATOM      7  S   UNL     1     -45.895  37.713  28.537  1.00  0.00    -0.075 S 
ATOM      8  N   UNL     1     -48.126  38.418  27.504  1.00  0.00    -0.138 NA
BRANCH   5   9
ATOM      9  N   UNL     1     -45.001  40.130  27.654  1.00  0.00    -0.274 N 
ATOM     10  C   UNL     1     -43.277  42.946  26.287  1.00  0.00     0.137 A 
ATOM     11  N   UNL     1     -44.119  43.349  25.319  1.00  0.00    -0.219 NA
ATOM     12  C   UNL     1     -43.615  41.828  27.064  1.00  0.00     0.080 A 
ATOM     13  C   UNL     1     -45.264  42.671  25.144  1.00  0.00     0.120 A 
ATOM     14  C   UNL     1     -44.833  41.208  26.784  1.00  0.00     0.153 A 
ATOM     15  C   UNL     1     -43.023  41.103  28.124  1.00  0.00     0.072 A 
ATOM     16  N   UNL     1     -45.694  41.599  25.822  1.00  0.00    -0.218 NA
ATOM     17  H   UNL     1     -45.919  43.035  24.358  1.00  0.00     0.106 H 
ATOM     18  Cl  UNL     1     -41.518  41.426  28.847  1.00  0.00    -0.082 Cl
ATOM     19  C   UNL     1     -43.873  40.082  28.465  1.00  0.00     0.033 A 
ATOM     20  H   UNL     1     -43.783  39.313  29.222  1.00  0.00     0.084 H 
BRANCH  10  21
ATOM     21  N   UNL     1     -42.112  43.675  26.444  1.00  0.00    -0.383 N 
ATOM     22  H   UNL     1     -42.101  44.603  26.041  1.00  0.00     0.158 HD
ATOM     23  H   UNL     1     -41.710  43.563  27.367  1.00  0.00     0.158 HD
ENDBRANCH  10  21
ENDBRANCH   5   9
ENDBRANCH   1   4
BRANCH   1  24
ATOM     24  O   UNL     1     -48.882  35.632  27.383  1.00  0.00    -0.486 OA
BRANCH  24  25
ATOM     25  C   UNL     1     -48.175  34.761  26.602  1.00  0.00     0.122 A 
ATOM     26  C   UNL     1     -46.870  34.935  26.155  1.00  0.00    -0.019 A 
ATOM     27  C   UNL     1     -48.872  33.599  26.249  1.00  0.00     0.007 A 
ATOM     28  C   UNL     1     -46.276  33.952  25.360  1.00  0.00    -0.049 A 
ATOM     29  H   UNL     1     -46.280  35.810  26.405  1.00  0.00     0.066 H 
ATOM     30  C   UNL     1     -48.306  32.608  25.458  1.00  0.00     0.076 A 
ATOM     31  H   UNL     1     -49.892  33.459  26.602  1.00  0.00     0.069 H 
ATOM     32  C   UNL     1     -46.989  32.793  25.010  1.00  0.00     0.001 A 
ATOM     33  H   UNL     1     -45.253  34.094  25.015  1.00  0.00     0.063 H 
ATOM     34  N   UNL     1     -49.025  31.513  25.148  1.00  0.00    -0.231 NA
ATOM     35  C   UNL     1     -46.428  31.789  24.221  1.00  0.00    -0.049 A 
ATOM     36  C   UNL     1     -48.489  30.544  24.372  1.00  0.00     0.129 A 
ATOM     37  C   UNL     1     -47.182  30.661  23.906  1.00  0.00    -0.019 A 
ATOM     38  H   UNL     1     -45.409  31.869  23.852  1.00  0.00     0.063 H 
ATOM     39  H   UNL     1     -46.732  29.874  23.313  1.00  0.00     0.066 H 
BRANCH  36  40
ATOM     40  N   UNL     1     -49.254  29.433  24.094  1.00  0.00    -0.357 N 
ATOM     41  C   UNL     1     -48.894  28.159  24.705  1.00  0.00     0.019 C 
ATOM     42  C   UNL     1     -50.681  29.502  23.800  1.00  0.00     0.019 C 
ATOM     43  C   UNL     1     -50.033  27.241  24.272  1.00  0.00    -0.034 C 
ATOM     44  H   UNL     1     -48.873  28.238  25.799  1.00  0.00     0.049 H 
ATOM     45  H   UNL     1     -47.929  27.784  24.348  1.00  0.00     0.049 H 
ATOM     46  C   UNL     1     -51.236  28.170  24.307  1.00  0.00    -0.034 C 
ATOM     47  H   UNL     1     -50.829  29.596  22.718  1.00  0.00     0.049 H 
ATOM     48  H   UNL     1     -51.188  30.332  24.304  1.00  0.00     0.049 H 
ATOM     49  H   UNL     1     -50.146  26.374  24.927  1.00  0.00     0.029 H 
ATOM     50  H   UNL     1     -49.865  26.884  23.248  1.00  0.00     0.029 H 
ATOM     51  H   UNL     1     -51.588  28.283  25.340  1.00  0.00     0.029 H 
ATOM     52  H   UNL     1     -52.072  27.808  23.702  1.00  0.00     0.029 H 
ENDBRANCH  36  40
ENDBRANCH  24  25
ENDBRANCH   1  24
TORSDOF 6
ENDMDL
MODEL 7
REMARK VINA RESULT:      -9.3      1.947      2.713
REMARK SMILES Nc1ncnc2c1c(Cl)cn2-c1nnc(COc2ccc3ccc(N4CCCC4)nc3c2)s1
REMARK SMILES IDX 16 1 15 4 12 5 13 6 33 7 14 8 11 9 2 10 3 11 7 12 4 13 6 14
REMARK SMILES IDX 8 15 5 16 9 18 10 19 1 21 17 24 18 25 19 26 32 27 20 28
REMARK SMILES IDX 31 30 21 32 30 34 22 35 24 36 23 37 25 40 26 41 29 42 27 43
REMARK SMILES IDX 28 46
REMARK H PARENT 16 2 16 3 4 17 10 20 1 22 1 23 19 29 32 31 20 33 22 38 23 39
REMARK H PARENT 26 44 26 45 29 47 29 48 27 49 27 50 28 51 28 52
REMARK Flexibility Score: inf
ROOT
ATOM      1  C   UNL     1     -45.772  33.519  28.134  1.00  0.00     0.142 C 
ATOM      2  H   UNL     1     -44.792  33.976  27.955  1.00  0.00     0.078 H 
ATOM      3  H   UNL     1     -45.651  32.600  28.720  1.00  0.00     0.078 H 
ENDROOT
BRANCH   1   4
ATOM      4  C   UNL     1     -46.406  33.195  26.820  1.00  0.00     0.156 A 
ATOM      5  C   UNL     1     -47.714  32.365  25.034  1.00  0.00     0.218 A 
ATOM      6  N   UNL     1     -46.771  33.180  24.610  1.00  0.00    -0.119 NA
ATOM      7  S   UNL     1     -47.737  32.106  26.714  1.00  0.00    -0.075 S 
ATOM      8  N   UNL     1     -46.005  33.660  25.653  1.00  0.00    -0.138 NA
BRANCH   5   9
ATOM      9  N   UNL     1     -48.624  31.753  24.162  1.00  0.00    -0.274 N 
ATOM     10  C   UNL     1     -49.604  29.997  21.208  1.00  0.00     0.137 A 
ATOM     11  N   UNL     1     -48.434  29.855  20.563  1.00  0.00    -0.219 NA
ATOM     12  C   UNL     1     -49.627  30.664  22.442  1.00  0.00     0.080 A 
ATOM     13  C   UNL     1     -47.324  30.347  21.136  1.00  0.00     0.120 A 
ATOM     14  C   UNL     1     -48.408  31.129  22.932  1.00  0.00     0.153 A 
ATOM     15  C   UNL     1     -50.612  31.022  23.393  1.00  0.00     0.072 A 
ATOM     16  N   UNL     1     -47.222  30.994  22.304  1.00  0.00    -0.218 NA
ATOM     17  H   UNL     1     -46.399  30.202  20.586  1.00  0.00     0.106 H 
ATOM     18  Cl  UNL     1     -52.279  30.707  23.282  1.00  0.00    -0.082 Cl
ATOM     19  C   UNL     1     -49.987  31.679  24.421  1.00  0.00     0.033 A 
ATOM     20  H   UNL     1     -50.389  32.108  25.331  1.00  0.00     0.084 H 
BRANCH  10  21
ATOM     21  N   UNL     1     -50.725  29.469  20.591  1.00  0.00    -0.383 N 
ATOM     22  H   UNL     1     -50.925  29.800  19.657  1.00  0.00     0.158 HD
ATOM     23  H   UNL     1     -50.829  28.477  20.768  1.00  0.00     0.158 HD
ENDBRANCH  10  21
ENDBRANCH   5   9
ENDBRANCH   1   4
BRANCH   1  24
ATOM     24  O   UNL     1     -46.628  34.441  28.808  1.00  0.00    -0.486 OA
BRANCH  24  25
ATOM     25  C   UNL     1     -46.766  35.683  28.255  1.00  0.00     0.122 A 
ATOM     26  C   UNL     1     -47.826  36.116  27.464  1.00  0.00    -0.019 A 
ATOM     27  C   UNL     1     -45.719  36.568  28.541  1.00  0.00     0.007 A 
ATOM     28  C   UNL     1     -47.829  37.421  26.968  1.00  0.00    -0.049 A 
ATOM     29  H   UNL     1     -48.667  35.477  27.218  1.00  0.00     0.066 H 
ATOM     30  C   UNL     1     -45.696  37.869  28.058  1.00  0.00     0.076 A 
ATOM     31  H   UNL     1     -44.892  36.232  29.163  1.00  0.00     0.069 H 
ATOM     32  C   UNL     1     -46.769  38.296  27.261  1.00  0.00     0.001 A 
ATOM     33  H   UNL     1     -48.663  37.754  26.352  1.00  0.00     0.063 H 
ATOM     34  N   UNL     1     -44.662  38.674  28.364  1.00  0.00    -0.231 NA
ATOM     35  C   UNL     1     -46.739  39.607  26.785  1.00  0.00    -0.049 A 
ATOM     36  C   UNL     1     -44.623  39.941  27.894  1.00  0.00     0.129 A 
ATOM     37  C   UNL     1     -45.663  40.430  27.109  1.00  0.00    -0.019 A 
ATOM     38  H   UNL     1     -47.545  40.000  26.172  1.00  0.00     0.063 H 
ATOM     39  H   UNL     1     -45.658  41.455  26.756  1.00  0.00     0.066 H 
BRANCH  36  40
ATOM     40  N   UNL     1     -43.554  40.735  28.246  1.00  0.00    -0.357 N 
ATOM     41  C   UNL     1     -42.783  40.391  29.436  1.00  0.00     0.019 C 
ATOM     42  C   UNL     1     -42.743  41.457  27.273  1.00  0.00     0.019 C 
ATOM     43  C   UNL     1     -41.639  41.400  29.403  1.00  0.00    -0.034 C 
ATOM     44  H   UNL     1     -42.384  39.372  29.367  1.00  0.00     0.049 H 
ATOM     45  H   UNL     1     -43.370  40.493  30.355  1.00  0.00     0.049 H 
ATOM     46  C   UNL     1     -41.355  41.526  27.914  1.00  0.00    -0.034 C 
ATOM     47  H   UNL     1     -43.152  42.463  27.128  1.00  0.00     0.049 H 
ATOM     48  H   UNL     1     -42.679  40.953  26.303  1.00  0.00     0.049 H 
ATOM     49  H   UNL     1     -40.769  41.068  29.975  1.00  0.00     0.029 H 
ATOM     50  H   UNL     1     -41.972  42.366  29.804  1.00  0.00     0.029 H 
ATOM     51  H   UNL     1     -40.747  40.676  27.579  1.00  0.00     0.029 H 
ATOM     52  H   UNL     1     -40.822  42.446  27.658  1.00  0.00     0.029 H 
ENDBRANCH  36  40
ENDBRANCH  24  25
ENDBRANCH   1  24
TORSDOF 6
ENDMDL
