MODEL 1
REMARK VINA RESULT:     -10.0      0.000      0.000
REMARK SMILES COCc1cn(-c2cncc(COc3ccc4ccc(N5CCC5)nc4c3)c2)c2ncnc(N)c12
REMARK SMILES IDX 7 1 8 2 9 3 10 4 11 5 28 6 6 10 4 11 5 12 35 13 29 15 33 16
REMARK SMILES IDX 30 17 32 18 31 19 3 21 2 24 1 25 34 29 12 32 13 35 14 36
REMARK SMILES IDX 15 37 27 38 16 39 26 41 17 43 25 45 18 46 20 47 19 48 21 51
REMARK SMILES IDX 22 52 24 53 23 54
REMARK H PARENT 8 7 10 8 28 9 5 14 31 20 3 22 3 23 1 26 1 27 1 28 34 30 34 31
REMARK H PARENT 12 33 12 34 15 40 27 42 16 44 18 49 19 50 22 55 22 56 24 57
REMARK H PARENT 24 58 23 59 23 60
REMARK Flexibility Score: inf
ROOT
ATOM      1  C   UNL     1     -47.058  37.807  27.463  1.00  0.00     0.066 A 
ATOM      2  C   UNL     1     -48.330  38.027  27.978  1.00  0.00     0.051 A 
ATOM      3  N   UNL     1     -49.340  37.118  27.938  1.00  0.00    -0.262 NA
ATOM      4  C   UNL     1     -49.074  35.927  27.365  1.00  0.00     0.034 A 
ATOM      5  C   UNL     1     -47.843  35.587  26.825  1.00  0.00     0.010 A 
ATOM      6  C   UNL     1     -46.827  36.555  26.870  1.00  0.00    -0.028 A 
ATOM      7  H   UNL     1     -48.626  38.944  28.471  1.00  0.00     0.086 H 
ATOM      8  H   UNL     1     -49.913  35.235  27.354  1.00  0.00     0.084 H 
ATOM      9  H   UNL     1     -45.873  36.297  26.422  1.00  0.00     0.065 H 
ENDROOT
BRANCH   1  10
ATOM     10  N   UNL     1     -46.025  38.797  27.529  1.00  0.00    -0.299 N 
ATOM     11  C   UNL     1     -44.750  40.590  26.957  1.00  0.00     0.009 A 
ATOM     12  C   UNL     1     -45.833  39.806  26.602  1.00  0.00     0.017 A 
ATOM     13  C   UNL     1     -44.252  40.058  28.182  1.00  0.00     0.067 A 
ATOM     14  H   UNL     1     -46.461  39.904  25.727  1.00  0.00     0.083 H 
ATOM     15  C   UNL     1     -45.033  38.947  28.500  1.00  0.00     0.150 A 
ATOM     16  C   UNL     1     -43.209  40.372  29.074  1.00  0.00     0.136 A 
ATOM     17  N   UNL     1     -44.853  38.166  29.584  1.00  0.00    -0.218 NA
ATOM     18  N   UNL     1     -43.006  39.597  30.152  1.00  0.00    -0.219 NA
ATOM     19  C   UNL     1     -43.821  38.549  30.342  1.00  0.00     0.120 A 
ATOM     20  H   UNL     1     -43.623  37.945  31.222  1.00  0.00     0.106 H 
BRANCH  11  21
ATOM     21  C   UNL     1     -44.232  41.747  26.165  1.00  0.00     0.074 C 
ATOM     22  H   UNL     1     -44.611  42.669  26.622  1.00  0.00     0.062 H 
ATOM     23  H   UNL     1     -44.587  41.757  25.131  1.00  0.00     0.062 H 
BRANCH  21  24
ATOM     24  O   UNL     1     -42.805  41.836  26.196  1.00  0.00    -0.380 OA
BRANCH  24  25
ATOM     25  C   UNL     1     -42.321  43.107  25.784  1.00  0.00     0.036 C 
ATOM     26  H   UNL     1     -42.214  43.144  24.697  1.00  0.00     0.053 H 
ATOM     27  H   UNL     1     -43.048  43.865  26.087  1.00  0.00     0.053 H 
ATOM     28  H   UNL     1     -41.365  43.337  26.264  1.00  0.00     0.053 H 
ENDBRANCH  24  25
ENDBRANCH  21  24
ENDBRANCH  11  21
BRANCH  16  29
ATOM     29  N   UNL     1     -42.363  41.468  28.945  1.00  0.00    -0.383 N 
ATOM     30  H   UNL     1     -42.909  42.258  28.614  1.00  0.00     0.158 HD
ATOM     31  H   UNL     1     -41.539  41.278  28.393  1.00  0.00     0.158 HD
ENDBRANCH  16  29
ENDBRANCH   1  10
BRANCH   5  32
ATOM     32  C   UNL     1     -47.636  34.251  26.161  1.00  0.00     0.115 C 
ATOM     33  H   UNL     1     -46.628  33.899  26.411  1.00  0.00     0.076 H 
ATOM     34  H   UNL     1     -47.737  34.359  25.075  1.00  0.00     0.076 H 
BRANCH  32  35
ATOM     35  O   UNL     1     -48.622  33.335  26.638  1.00  0.00    -0.489 OA
BRANCH  35  36
ATOM     36  C   UNL     1     -48.835  32.205  25.898  1.00  0.00     0.122 A 
ATOM     37  C   UNL     1     -49.518  32.416  24.702  1.00  0.00    -0.019 A 
ATOM     38  C   UNL     1     -48.434  30.910  26.237  1.00  0.00     0.007 A 
ATOM     39  C   UNL     1     -49.800  31.346  23.855  1.00  0.00    -0.049 A 
ATOM     40  H   UNL     1     -49.834  33.420  24.427  1.00  0.00     0.066 H 
ATOM     41  C   UNL     1     -48.701  29.825  25.411  1.00  0.00     0.076 A 
ATOM     42  H   UNL     1     -47.899  30.702  27.158  1.00  0.00     0.069 H 
ATOM     43  C   UNL     1     -49.393  30.050  24.206  1.00  0.00     0.001 A 
ATOM     44  H   UNL     1     -50.336  31.529  22.927  1.00  0.00     0.063 H 
ATOM     45  N   UNL     1     -48.290  28.601  25.787  1.00  0.00    -0.231 NA
ATOM     46  C   UNL     1     -49.656  28.948  23.390  1.00  0.00    -0.049 A 
ATOM     47  C   UNL     1     -48.542  27.540  24.988  1.00  0.00     0.129 A 
ATOM     48  C   UNL     1     -49.230  27.684  23.787  1.00  0.00    -0.019 A 
ATOM     49  H   UNL     1     -50.194  29.061  22.452  1.00  0.00     0.063 H 
ATOM     50  H   UNL     1     -49.444  26.822  23.164  1.00  0.00     0.066 H 
BRANCH  47  51
ATOM     51  N   UNL     1     -48.117  26.265  25.405  1.00  0.00    -0.356 N 
ATOM     52  C   UNL     1     -46.770  25.869  25.698  1.00  0.00     0.021 C 
ATOM     53  C   UNL     1     -48.641  25.573  26.548  1.00  0.00     0.021 C 
ATOM     54  C   UNL     1     -47.379  24.705  26.488  1.00  0.00    -0.018 C 
ATOM     55  H   UNL     1     -46.192  25.590  24.815  1.00  0.00     0.049 H 
ATOM     56  H   UNL     1     -46.229  26.605  26.302  1.00  0.00     0.049 H 
ATOM     57  H   UNL     1     -49.583  25.058  26.351  1.00  0.00     0.049 H 
ATOM     58  H   UNL     1     -48.722  26.208  27.437  1.00  0.00     0.049 H 
ATOM     59  H   UNL     1     -46.908  24.482  27.449  1.00  0.00     0.030 H 
ATOM     60  H   UNL     1     -47.494  23.779  25.914  1.00  0.00     0.030 H 
ENDBRANCH  47  51
ENDBRANCH  35  36
ENDBRANCH  32  35
ENDBRANCH   5  32
TORSDOF 9
ENDMDL
MODEL 2
REMARK VINA RESULT:      -9.8      2.753     11.971
REMARK SMILES COCc1cn(-c2cncc(COc3ccc4ccc(N5CCC5)nc4c3)c2)c2ncnc(N)c12
REMARK SMILES IDX 7 1 8 2 9 3 10 4 11 5 28 6 6 10 4 11 5 12 35 13 29 15 33 16
REMARK SMILES IDX 30 17 32 18 31 19 3 21 2 24 1 25 34 29 12 32 13 35 14 36
REMARK SMILES IDX 15 37 27 38 16 39 26 41 17 43 25 45 18 46 20 47 19 48 21 51
REMARK SMILES IDX 22 52 24 53 23 54
REMARK H PARENT 8 7 10 8 28 9 5 14 31 20 3 22 3 23 1 26 1 27 1 28 34 30 34 31
REMARK H PARENT 12 33 12 34 15 40 27 42 16 44 18 49 19 50 22 55 22 56 24 57
REMARK H PARENT 24 58 23 59 23 60
REMARK Flexibility Score: inf
ROOT
ATOM      1  C   UNL     1     -47.375  32.790  25.906  1.00  0.00     0.066 A 
ATOM      2  C   UNL     1     -46.710  32.338  27.041  1.00  0.00     0.051 A 
ATOM      3  N   UNL     1     -46.179  33.151  27.992  1.00  0.00    -0.262 NA
ATOM      4  C   UNL     1     -46.321  34.481  27.814  1.00  0.00     0.034 A 
ATOM      5  C   UNL     1     -46.971  35.050  26.729  1.00  0.00     0.010 A 
ATOM      6  C   UNL     1     -47.494  34.180  25.759  1.00  0.00    -0.028 A 
ATOM      7  H   UNL     1     -46.567  31.290  27.273  1.00  0.00     0.086 H 
ATOM      8  H   UNL     1     -45.878  35.089  28.598  1.00  0.00     0.084 H 
ATOM      9  H   UNL     1     -47.977  34.629  24.897  1.00  0.00     0.065 H 
ENDROOT
BRANCH   1  10
ATOM     10  N   UNL     1     -47.917  31.892  24.931  1.00  0.00    -0.299 N 
ATOM     11  C   UNL     1     -49.366  30.456  23.926  1.00  0.00     0.009 A 
ATOM     12  C   UNL     1     -49.141  31.254  25.034  1.00  0.00     0.017 A 
ATOM     13  C   UNL     1     -48.233  30.619  23.076  1.00  0.00     0.067 A 
ATOM     14  H   UNL     1     -49.780  31.382  25.896  1.00  0.00     0.083 H 
ATOM     15  C   UNL     1     -47.350  31.484  23.722  1.00  0.00     0.150 A 
ATOM     16  C   UNL     1     -47.828  30.125  21.821  1.00  0.00     0.136 A 
ATOM     17  N   UNL     1     -46.153  31.865  23.234  1.00  0.00    -0.218 NA
ATOM     18  N   UNL     1     -46.633  30.483  21.326  1.00  0.00    -0.219 NA
ATOM     19  C   UNL     1     -45.869  31.315  22.049  1.00  0.00     0.120 A 
ATOM     20  H   UNL     1     -44.909  31.577  21.617  1.00  0.00     0.106 H 
BRANCH  11  21
ATOM     21  C   UNL     1     -50.569  29.593  23.721  1.00  0.00     0.074 C 
ATOM     22  H   UNL     1     -50.586  29.278  22.671  1.00  0.00     0.062 H 
ATOM     23  H   UNL     1     -51.512  30.118  23.892  1.00  0.00     0.062 H 
BRANCH  21  24
ATOM     24  O   UNL     1     -50.522  28.395  24.502  1.00  0.00    -0.380 OA
BRANCH  24  25
ATOM     25  C   UNL     1     -49.681  27.399  23.936  1.00  0.00     0.036 C 
ATOM     26  H   UNL     1     -50.178  26.425  23.947  1.00  0.00     0.053 H 
ATOM     27  H   UNL     1     -49.477  27.673  22.898  1.00  0.00     0.053 H 
ATOM     28  H   UNL     1     -48.728  27.342  24.471  1.00  0.00     0.053 H 
ENDBRANCH  24  25
ENDBRANCH  21  24
ENDBRANCH  11  21
BRANCH  16  29
ATOM     29  N   UNL     1     -48.597  29.294  21.014  1.00  0.00    -0.383 N 
ATOM     30  H   UNL     1     -49.551  29.646  21.007  1.00  0.00     0.158 HD
ATOM     31  H   UNL     1     -48.523  28.316  21.255  1.00  0.00     0.158 HD
ENDBRANCH  16  29
ENDBRANCH   1  10
BRANCH   5  32
ATOM     32  C   UNL     1     -47.049  36.546  26.578  1.00  0.00     0.115 C 
ATOM     33  H   UNL     1     -48.042  36.798  26.185  1.00  0.00     0.076 H 
ATOM     34  H   UNL     1     -46.273  36.889  25.883  1.00  0.00     0.076 H 
BRANCH  32  35
ATOM     35  O   UNL     1     -46.843  37.156  27.853  1.00  0.00    -0.489 OA
BRANCH  35  36
ATOM     36  C   UNL     1     -45.909  38.152  27.925  1.00  0.00     0.122 A 
ATOM     37  C   UNL     1     -45.113  38.119  29.068  1.00  0.00    -0.019 A 
ATOM     38  C   UNL     1     -45.702  39.157  26.978  1.00  0.00     0.007 A 
ATOM     39  C   UNL     1     -44.123  39.079  29.264  1.00  0.00    -0.049 A 
ATOM     40  H   UNL     1     -45.265  37.340  29.813  1.00  0.00     0.066 H 
ATOM     41  C   UNL     1     -44.721  40.127  27.146  1.00  0.00     0.076 A 
ATOM     42  H   UNL     1     -46.298  39.219  26.073  1.00  0.00     0.069 H 
ATOM     43  C   UNL     1     -43.924  40.084  28.306  1.00  0.00     0.001 A 
ATOM     44  H   UNL     1     -43.513  39.039  30.162  1.00  0.00     0.063 H 
ATOM     45  N   UNL     1     -44.565  41.070  26.200  1.00  0.00    -0.231 NA
ATOM     46  C   UNL     1     -42.946  41.069  28.461  1.00  0.00    -0.049 A 
ATOM     47  C   UNL     1     -43.611  42.015  26.354  1.00  0.00     0.129 A 
ATOM     48  C   UNL     1     -42.792  42.043  27.479  1.00  0.00    -0.019 A 
ATOM     49  H   UNL     1     -42.307  41.090  29.339  1.00  0.00     0.063 H 
ATOM     50  H   UNL     1     -42.044  42.818  27.601  1.00  0.00     0.066 H 
BRANCH  47  51
ATOM     51  N   UNL     1     -43.472  43.002  25.361  1.00  0.00    -0.356 N 
ATOM     52  C   UNL     1     -42.253  43.642  24.959  1.00  0.00     0.021 C 
ATOM     53  C   UNL     1     -43.919  42.852  24.005  1.00  0.00     0.021 C 
ATOM     54  C   UNL     1     -42.980  44.014  23.661  1.00  0.00    -0.018 C 
ATOM     55  H   UNL     1     -41.966  44.480  25.596  1.00  0.00     0.049 H 
ATOM     56  H   UNL     1     -41.421  42.941  24.837  1.00  0.00     0.049 H 
ATOM     57  H   UNL     1     -44.985  43.047  23.874  1.00  0.00     0.049 H 
ATOM     58  H   UNL     1     -43.641  41.889  23.564  1.00  0.00     0.049 H 
ATOM     59  H   UNL     1     -42.401  43.903  22.741  1.00  0.00     0.030 H 
ATOM     60  H   UNL     1     -43.457  45.000  23.677  1.00  0.00     0.030 H 
ENDBRANCH  47  51
ENDBRANCH  35  36
ENDBRANCH  32  35
ENDBRANCH   5  32
TORSDOF 9
ENDMDL
MODEL 3
REMARK VINA RESULT:      -9.6      2.094      2.917
REMARK SMILES COCc1cn(-c2cncc(COc3ccc4ccc(N5CCC5)nc4c3)c2)c2ncnc(N)c12
REMARK SMILES IDX 7 1 8 2 9 3 10 4 11 5 28 6 6 10 4 11 5 12 35 13 29 15 33 16
REMARK SMILES IDX 30 17 32 18 31 19 3 21 2 24 1 25 34 29 12 32 13 35 14 36
REMARK SMILES IDX 15 37 27 38 16 39 26 41 17 43 25 45 18 46 20 47 19 48 21 51
REMARK SMILES IDX 22 52 24 53 23 54
REMARK H PARENT 8 7 10 8 28 9 5 14 31 20 3 22 3 23 1 26 1 27 1 28 34 30 34 31
REMARK H PARENT 12 33 12 34 15 40 27 42 16 44 18 49 19 50 22 55 22 56 24 57
REMARK H PARENT 24 58 23 59 23 60
REMARK Flexibility Score: inf
ROOT
ATOM      1  C   UNL     1     -45.723  38.342  28.145  1.00  0.00     0.066 A 
ATOM      2  C   UNL     1     -45.486  37.821  29.412  1.00  0.00     0.051 A 
ATOM      3  N   UNL     1     -46.115  36.729  29.921  1.00  0.00    -0.262 NA
ATOM      4  C   UNL     1     -47.022  36.117  29.132  1.00  0.00     0.034 A 
ATOM      5  C   UNL     1     -47.336  36.536  27.848  1.00  0.00     0.010 A 
ATOM      6  C   UNL     1     -46.677  37.676  27.360  1.00  0.00    -0.028 A 
ATOM      7  H   UNL     1     -44.764  38.236  30.104  1.00  0.00     0.086 H 
ATOM      8  H   UNL     1     -47.500  35.252  29.583  1.00  0.00     0.084 H 
ATOM      9  H   UNL     1     -46.946  38.019  26.366  1.00  0.00     0.065 H 
ENDROOT
BRANCH   1  10
ATOM     10  N   UNL     1     -45.033  39.496  27.653  1.00  0.00    -0.299 N 
ATOM     11  C   UNL     1     -44.480  41.231  26.291  1.00  0.00     0.009 A 
ATOM     12  C   UNL     1     -45.334  40.159  26.476  1.00  0.00     0.017 A 
ATOM     13  C   UNL     1     -43.611  41.253  27.421  1.00  0.00     0.067 A 
ATOM     14  H   UNL     1     -46.126  39.825  25.820  1.00  0.00     0.083 H 
ATOM     15  C   UNL     1     -43.954  40.169  28.229  1.00  0.00     0.150 A 
ATOM     16  C   UNL     1     -42.549  42.061  27.867  1.00  0.00     0.136 A 
ATOM     17  N   UNL     1     -43.339  39.848  29.385  1.00  0.00    -0.218 NA
ATOM     18  N   UNL     1     -41.915  41.749  29.009  1.00  0.00    -0.219 NA
ATOM     19  C   UNL     1     -42.333  40.673  29.693  1.00  0.00     0.120 A 
ATOM     20  H   UNL     1     -41.794  40.451  30.608  1.00  0.00     0.106 H 
BRANCH  11  21
ATOM     21  C   UNL     1     -44.492  42.144  25.107  1.00  0.00     0.074 C 
ATOM     22  H   UNL     1     -44.586  41.528  24.205  1.00  0.00     0.062 H 
ATOM     23  H   UNL     1     -43.566  42.711  24.988  1.00  0.00     0.062 H 
BRANCH  21  24
ATOM     24  O   UNL     1     -45.615  43.029  25.112  1.00  0.00    -0.380 OA
BRANCH  24  25
ATOM     25  C   UNL     1     -45.472  44.099  26.036  1.00  0.00     0.036 C 
ATOM     26  H   UNL     1     -44.759  44.838  25.661  1.00  0.00     0.053 H 
ATOM     27  H   UNL     1     -46.445  44.584  26.152  1.00  0.00     0.053 H 
ATOM     28  H   UNL     1     -45.153  43.731  27.015  1.00  0.00     0.053 H 
ENDBRANCH  24  25
ENDBRANCH  21  24
ENDBRANCH  11  21
BRANCH  16  29
ATOM     29  N   UNL     1     -42.102  43.208  27.219  1.00  0.00    -0.383 N 
ATOM     30  H   UNL     1     -41.570  43.765  27.883  1.00  0.00     0.158 HD
ATOM     31  H   UNL     1     -42.838  43.720  26.752  1.00  0.00     0.158 HD
ENDBRANCH  16  29
ENDBRANCH   1  10
BRANCH   5  32
ATOM     32  C   UNL     1     -48.392  35.826  27.044  1.00  0.00     0.115 C 
ATOM     33  H   UNL     1     -48.176  35.985  25.980  1.00  0.00     0.076 H 
ATOM     34  H   UNL     1     -49.381  36.232  27.290  1.00  0.00     0.076 H 
BRANCH  32  35
ATOM     35  O   UNL     1     -48.363  34.433  27.360  1.00  0.00    -0.489 OA
BRANCH  35  36
ATOM     36  C   UNL     1     -47.987  33.574  26.365  1.00  0.00     0.122 A 
ATOM     37  C   UNL     1     -46.690  33.764  25.894  1.00  0.00    -0.019 A 
ATOM     38  C   UNL     1     -48.775  32.563  25.809  1.00  0.00     0.007 A 
ATOM     39  C   UNL     1     -46.185  32.955  24.879  1.00  0.00    -0.049 A 
ATOM     40  H   UNL     1     -46.067  34.548  26.320  1.00  0.00     0.066 H 
ATOM     41  C   UNL     1     -48.297  31.741  24.796  1.00  0.00     0.076 A 
ATOM     42  H   UNL     1     -49.790  32.381  26.147  1.00  0.00     0.069 H 
ATOM     43  C   UNL     1     -46.985  31.943  24.328  1.00  0.00     0.001 A 
ATOM     44  H   UNL     1     -45.171  33.119  24.522  1.00  0.00     0.063 H 
ATOM     45  N   UNL     1     -49.099  30.783  24.299  1.00  0.00    -0.231 NA
ATOM     46  C   UNL     1     -46.522  31.110  23.306  1.00  0.00    -0.049 A 
ATOM     47  C   UNL     1     -48.641  29.976  23.316  1.00  0.00     0.129 A 
ATOM     48  C   UNL     1     -47.359  30.123  22.795  1.00  0.00    -0.019 A 
ATOM     49  H   UNL     1     -45.521  31.225  22.900  1.00  0.00     0.063 H 
ATOM     50  H   UNL     1     -47.010  29.482  21.992  1.00  0.00     0.066 H 
BRANCH  47  51
ATOM     51  N   UNL     1     -49.499  28.988  22.799  1.00  0.00    -0.356 N 
ATOM     52  C   UNL     1     -49.740  28.708  21.412  1.00  0.00     0.021 C 
ATOM     53  C   UNL     1     -49.425  27.595  23.136  1.00  0.00     0.021 C 
ATOM     54  C   UNL     1     -50.248  27.335  21.870  1.00  0.00    -0.018 C 
ATOM     55  H   UNL     1     -50.486  29.360  20.956  1.00  0.00     0.049 H 
ATOM     56  H   UNL     1     -48.823  28.685  20.815  1.00  0.00     0.049 H 
ATOM     57  H   UNL     1     -49.913  27.349  24.081  1.00  0.00     0.049 H 
ATOM     58  H   UNL     1     -48.403  27.200  23.112  1.00  0.00     0.049 H 
ATOM     59  H   UNL     1     -49.932  26.483  21.263  1.00  0.00     0.030 H 
ATOM     60  H   UNL     1     -51.329  27.285  22.036  1.00  0.00     0.030 H 
ENDBRANCH  47  51
ENDBRANCH  35  36
ENDBRANCH  32  35
ENDBRANCH   5  32
TORSDOF 9
ENDMDL
MODEL 4
REMARK VINA RESULT:      -9.6      3.264     11.700
REMARK SMILES COCc1cn(-c2cncc(COc3ccc4ccc(N5CCC5)nc4c3)c2)c2ncnc(N)c12
REMARK SMILES IDX 7 1 8 2 9 3 10 4 11 5 28 6 6 10 4 11 5 12 35 13 29 15 33 16
REMARK SMILES IDX 30 17 32 18 31 19 3 21 2 24 1 25 34 29 12 32 13 35 14 36
REMARK SMILES IDX 15 37 27 38 16 39 26 41 17 43 25 45 18 46 20 47 19 48 21 51
REMARK SMILES IDX 22 52 24 53 23 54
REMARK H PARENT 8 7 10 8 28 9 5 14 31 20 3 22 3 23 1 26 1 27 1 28 34 30 34 31
REMARK H PARENT 12 33 12 34 15 40 27 42 16 44 18 49 19 50 22 55 22 56 24 57
REMARK H PARENT 24 58 23 59 23 60
REMARK Flexibility Score: inf
ROOT
ATOM      1  C   UNL     1     -46.878  33.182  25.979  1.00  0.00     0.066 A 
ATOM      2  C   UNL     1     -46.389  32.752  27.207  1.00  0.00     0.051 A 
ATOM      3  N   UNL     1     -46.199  33.563  28.282  1.00  0.00    -0.262 NA
ATOM      4  C   UNL     1     -46.515  34.865  28.134  1.00  0.00     0.034 A 
ATOM      5  C   UNL     1     -47.019  35.410  26.962  1.00  0.00     0.010 A 
ATOM      6  C   UNL     1     -47.189  34.546  25.868  1.00  0.00    -0.028 A 
ATOM      7  H   UNL     1     -46.128  31.723  27.421  1.00  0.00     0.086 H 
ATOM      8  H   UNL     1     -46.343  35.474  29.018  1.00  0.00     0.084 H 
ATOM      9  H   UNL     1     -47.557  34.979  24.944  1.00  0.00     0.065 H 
ENDROOT
BRANCH   1  10
ATOM     10  N   UNL     1     -47.061  32.288  24.875  1.00  0.00    -0.299 N 
ATOM     11  C   UNL     1     -46.556  30.939  23.116  1.00  0.00     0.009 A 
ATOM     12  C   UNL     1     -46.042  31.765  24.099  1.00  0.00     0.017 A 
ATOM     13  C   UNL     1     -47.970  30.927  23.299  1.00  0.00     0.067 A 
ATOM     14  H   UNL     1     -45.006  32.021  24.271  1.00  0.00     0.083 H 
ATOM     15  C   UNL     1     -48.257  31.778  24.366  1.00  0.00     0.150 A 
ATOM     16  C   UNL     1     -49.067  30.302  22.677  1.00  0.00     0.136 A 
ATOM     17  N   UNL     1     -49.497  32.040  24.827  1.00  0.00    -0.218 NA
ATOM     18  N   UNL     1     -50.310  30.562  23.113  1.00  0.00    -0.219 NA
ATOM     19  C   UNL     1     -50.457  31.408  24.144  1.00  0.00     0.120 A 
ATOM     20  H   UNL     1     -51.476  31.596  24.465  1.00  0.00     0.106 H 
BRANCH  11  21
ATOM     21  C   UNL     1     -45.745  30.236  22.075  1.00  0.00     0.074 C 
ATOM     22  H   UNL     1     -45.885  29.156  22.207  1.00  0.00     0.062 H 
ATOM     23  H   UNL     1     -44.671  30.413  22.171  1.00  0.00     0.062 H 
BRANCH  21  24
ATOM     24  O   UNL     1     -46.178  30.541  20.747  1.00  0.00    -0.380 OA
BRANCH  24  25
ATOM     25  C   UNL     1     -45.940  31.895  20.385  1.00  0.00     0.036 C 
ATOM     26  H   UNL     1     -45.838  32.519  21.277  1.00  0.00     0.053 H 
ATOM     27  H   UNL     1     -45.003  31.939  19.823  1.00  0.00     0.053 H 
ATOM     28  H   UNL     1     -46.742  32.277  19.747  1.00  0.00     0.053 H 
ENDBRANCH  24  25
ENDBRANCH  21  24
ENDBRANCH  11  21
BRANCH  16  29
ATOM     29  N   UNL     1     -48.968  29.388  21.634  1.00  0.00    -0.383 N 
ATOM     30  H   UNL     1     -48.060  28.935  21.688  1.00  0.00     0.158 HD
ATOM     31  H   UNL     1     -49.174  29.785  20.728  1.00  0.00     0.158 HD
ENDBRANCH  16  29
ENDBRANCH   1  10
BRANCH   5  32
ATOM     32  C   UNL     1     -47.307  36.884  26.861  1.00  0.00     0.115 C 
ATOM     33  H   UNL     1     -48.386  37.011  26.703  1.00  0.00     0.076 H 
ATOM     34  H   UNL     1     -46.753  37.312  26.017  1.00  0.00     0.076 H 
BRANCH  32  35
ATOM     35  O   UNL     1     -46.897  37.525  28.069  1.00  0.00    -0.489 OA
BRANCH  35  36
ATOM     36  C   UNL     1     -45.926  38.482  27.970  1.00  0.00     0.122 A 
ATOM     37  C   UNL     1     -45.034  38.517  29.040  1.00  0.00    -0.019 A 
ATOM     38  C   UNL     1     -45.768  39.389  26.920  1.00  0.00     0.007 A 
ATOM     39  C   UNL     1     -43.998  39.447  29.062  1.00  0.00    -0.049 A 
ATOM     40  H   UNL     1     -45.147  37.814  29.863  1.00  0.00     0.066 H 
ATOM     41  C   UNL     1     -44.743  40.328  26.914  1.00  0.00     0.076 A 
ATOM     42  H   UNL     1     -46.440  39.396  26.067  1.00  0.00     0.069 H 
ATOM     43  C   UNL     1     -43.849  40.354  28.001  1.00  0.00     0.001 A 
ATOM     44  H   UNL     1     -43.312  39.461  29.905  1.00  0.00     0.063 H 
ATOM     45  N   UNL     1     -44.639  41.176  25.876  1.00  0.00    -0.231 NA
ATOM     46  C   UNL     1     -42.827  41.306  27.982  1.00  0.00    -0.049 A 
ATOM     47  C   UNL     1     -43.642  42.089  25.861  1.00  0.00     0.129 A 
ATOM     48  C   UNL     1     -42.727  42.181  26.905  1.00  0.00    -0.019 A 
ATOM     49  H   UNL     1     -42.113  41.378  28.798  1.00  0.00     0.063 H 
ATOM     50  H   UNL     1     -41.944  42.932  26.891  1.00  0.00     0.066 H 
BRANCH  47  51
ATOM     51  N   UNL     1     -43.557  42.977  24.773  1.00  0.00    -0.356 N 
ATOM     52  C   UNL     1     -44.657  43.561  24.060  1.00  0.00     0.021 C 
ATOM     53  C   UNL     1     -42.827  44.213  24.793  1.00  0.00     0.021 C 
ATOM     54  C   UNL     1     -43.663  44.624  23.576  1.00  0.00    -0.018 C 
ATOM     55  H   UNL     1     -45.071  42.914  23.286  1.00  0.00     0.049 H 
ATOM     56  H   UNL     1     -45.446  43.933  24.721  1.00  0.00     0.049 H 
ATOM     57  H   UNL     1     -41.757  44.090  24.617  1.00  0.00     0.049 H 
ATOM     58  H   UNL     1     -43.008  44.805  25.698  1.00  0.00     0.049 H 
ATOM     59  H   UNL     1     -44.030  45.653  23.575  1.00  0.00     0.030 H 
ATOM     60  H   UNL     1     -43.197  44.400  22.611  1.00  0.00     0.030 H 
ENDBRANCH  47  51
ENDBRANCH  35  36
ENDBRANCH  32  35
ENDBRANCH   5  32
TORSDOF 9
ENDMDL
MODEL 5
REMARK VINA RESULT:      -9.4      2.453     12.181
REMARK SMILES COCc1cn(-c2cncc(COc3ccc4ccc(N5CCC5)nc4c3)c2)c2ncnc(N)c12
REMARK SMILES IDX 7 1 8 2 9 3 10 4 11 5 28 6 6 10 4 11 5 12 35 13 29 15 33 16
REMARK SMILES IDX 30 17 32 18 31 19 3 21 2 24 1 25 34 29 12 32 13 35 14 36
REMARK SMILES IDX 15 37 27 38 16 39 26 41 17 43 25 45 18 46 20 47 19 48 21 51
REMARK SMILES IDX 22 52 24 53 23 54
REMARK H PARENT 8 7 10 8 28 9 5 14 31 20 3 22 3 23 1 26 1 27 1 28 34 30 34 31
REMARK H PARENT 12 33 12 34 15 40 27 42 16 44 18 49 19 50 22 55 22 56 24 57
REMARK H PARENT 24 58 23 59 23 60
REMARK Flexibility Score: inf
ROOT
ATOM      1  C   UNL     1     -48.215  31.558  24.974  1.00  0.00     0.066 A 
ATOM      2  C   UNL     1     -47.057  31.810  24.246  1.00  0.00     0.051 A 
ATOM      3  N   UNL     1     -46.285  32.918  24.394  1.00  0.00    -0.262 NA
ATOM      4  C   UNL     1     -46.675  33.822  25.317  1.00  0.00     0.034 A 
ATOM      5  C   UNL     1     -47.804  33.678  26.110  1.00  0.00     0.010 A 
ATOM      6  C   UNL     1     -48.586  32.527  25.919  1.00  0.00    -0.028 A 
ATOM      7  H   UNL     1     -46.660  31.133  23.500  1.00  0.00     0.086 H 
ATOM      8  H   UNL     1     -46.028  34.691  25.397  1.00  0.00     0.084 H 
ATOM      9  H   UNL     1     -49.484  32.430  26.521  1.00  0.00     0.065 H 
ENDROOT
BRANCH   1  10
ATOM     10  N   UNL     1     -48.996  30.374  24.781  1.00  0.00    -0.299 N 
ATOM     11  C   UNL     1     -49.668  28.209  24.961  1.00  0.00     0.009 A 
ATOM     12  C   UNL     1     -48.723  29.141  25.349  1.00  0.00     0.017 A 
ATOM     13  C   UNL     1     -50.593  28.898  24.123  1.00  0.00     0.067 A 
ATOM     14  H   UNL     1     -47.861  28.984  25.982  1.00  0.00     0.083 H 
ATOM     15  C   UNL     1     -50.148  30.215  24.009  1.00  0.00     0.150 A 
ATOM     16  C   UNL     1     -51.768  28.565  23.422  1.00  0.00     0.136 A 
ATOM     17  N   UNL     1     -50.757  31.171  23.278  1.00  0.00    -0.218 NA
ATOM     18  N   UNL     1     -52.380  29.500  22.678  1.00  0.00    -0.219 NA
ATOM     19  C   UNL     1     -51.847  30.731  22.641  1.00  0.00     0.120 A 
ATOM     20  H   UNL     1     -52.368  31.458  22.026  1.00  0.00     0.106 H 
BRANCH  11  21
ATOM     21  C   UNL     1     -49.661  26.767  25.354  1.00  0.00     0.074 C 
ATOM     22  H   UNL     1     -50.238  26.209  24.607  1.00  0.00     0.062 H 
ATOM     23  H   UNL     1     -50.150  26.578  26.313  1.00  0.00     0.062 H 
BRANCH  21  24
ATOM     24  O   UNL     1     -48.346  26.205  25.352  1.00  0.00    -0.380 OA
BRANCH  24  25
ATOM     25  C   UNL     1     -48.084  25.406  26.497  1.00  0.00     0.036 C 
ATOM     26  H   UNL     1     -47.122  25.675  26.942  1.00  0.00     0.053 H 
ATOM     27  H   UNL     1     -48.870  25.593  27.233  1.00  0.00     0.053 H 
ATOM     28  H   UNL     1     -48.097  24.342  26.244  1.00  0.00     0.053 H 
ENDBRANCH  24  25
ENDBRANCH  21  24
ENDBRANCH  11  21
BRANCH  16  29
ATOM     29  N   UNL     1     -52.383  27.319  23.458  1.00  0.00    -0.383 N 
ATOM     30  H   UNL     1     -52.380  26.933  22.518  1.00  0.00     0.158 HD
ATOM     31  H   UNL     1     -53.294  27.330  23.893  1.00  0.00     0.158 HD
ENDBRANCH  16  29
ENDBRANCH   1  10
BRANCH   5  32
ATOM     32  C   UNL     1     -48.199  34.752  27.088  1.00  0.00     0.115 C 
ATOM     33  H   UNL     1     -47.689  34.552  28.039  1.00  0.00     0.076 H 
ATOM     34  H   UNL     1     -49.285  34.737  27.235  1.00  0.00     0.076 H 
BRANCH  32  35
ATOM     35  O   UNL     1     -47.810  36.024  26.567  1.00  0.00    -0.489 OA
BRANCH  35  36
ATOM     36  C   UNL     1     -46.892  36.739  27.286  1.00  0.00     0.122 A 
ATOM     37  C   UNL     1     -46.586  36.200  28.533  1.00  0.00    -0.019 A 
ATOM     38  C   UNL     1     -46.266  37.919  26.879  1.00  0.00     0.007 A 
ATOM     39  C   UNL     1     -45.666  36.833  29.366  1.00  0.00    -0.049 A 
ATOM     40  H   UNL     1     -47.067  35.281  28.860  1.00  0.00     0.066 H 
ATOM     41  C   UNL     1     -45.343  38.572  27.688  1.00  0.00     0.076 A 
ATOM     42  H   UNL     1     -46.475  38.372  25.915  1.00  0.00     0.069 H 
ATOM     43  C   UNL     1     -45.043  38.018  28.947  1.00  0.00     0.001 A 
ATOM     44  H   UNL     1     -45.440  36.400  30.337  1.00  0.00     0.063 H 
ATOM     45  N   UNL     1     -44.771  39.704  27.244  1.00  0.00    -0.231 NA
ATOM     46  C   UNL     1     -44.117  38.689  29.749  1.00  0.00    -0.049 A 
ATOM     47  C   UNL     1     -43.869  40.343  28.024  1.00  0.00     0.129 A 
ATOM     48  C   UNL     1     -43.530  39.862  29.284  1.00  0.00    -0.019 A 
ATOM     49  H   UNL     1     -43.852  38.313  30.733  1.00  0.00     0.063 H 
ATOM     50  H   UNL     1     -42.821  40.395  29.908  1.00  0.00     0.066 H 
BRANCH  47  51
ATOM     51  N   UNL     1     -43.291  41.535  27.548  1.00  0.00    -0.356 N 
ATOM     52  C   UNL     1     -41.895  41.770  27.312  1.00  0.00     0.021 C 
ATOM     53  C   UNL     1     -43.676  42.190  26.331  1.00  0.00     0.021 C 
ATOM     54  C   UNL     1     -42.335  42.929  26.408  1.00  0.00    -0.018 C 
ATOM     55  H   UNL     1     -41.340  42.054  28.207  1.00  0.00     0.049 H 
ATOM     56  H   UNL     1     -41.403  40.941  26.793  1.00  0.00     0.049 H 
ATOM     57  H   UNL     1     -44.568  42.811  26.434  1.00  0.00     0.049 H 
ATOM     58  H   UNL     1     -43.776  41.502  25.483  1.00  0.00     0.049 H 
ATOM     59  H   UNL     1     -41.792  43.031  25.466  1.00  0.00     0.030 H 
ATOM     60  H   UNL     1     -42.383  43.901  26.911  1.00  0.00     0.030 H 
ENDBRANCH  47  51
ENDBRANCH  35  36
ENDBRANCH  32  35
ENDBRANCH   5  32
TORSDOF 9
ENDMDL
MODEL 6
REMARK VINA RESULT:      -9.2      2.749      4.861
REMARK SMILES COCc1cn(-c2cncc(COc3ccc4ccc(N5CCC5)nc4c3)c2)c2ncnc(N)c12
REMARK SMILES IDX 7 1 8 2 9 3 10 4 11 5 28 6 6 10 4 11 5 12 35 13 29 15 33 16
REMARK SMILES IDX 30 17 32 18 31 19 3 21 2 24 1 25 34 29 12 32 13 35 14 36
REMARK SMILES IDX 15 37 27 38 16 39 26 41 17 43 25 45 18 46 20 47 19 48 21 51
REMARK SMILES IDX 22 52 24 53 23 54
REMARK H PARENT 8 7 10 8 28 9 5 14 31 20 3 22 3 23 1 26 1 27 1 28 34 30 34 31
REMARK H PARENT 12 33 12 34 15 40 27 42 16 44 18 49 19 50 22 55 22 56 24 57
REMARK H PARENT 24 58 23 59 23 60
REMARK Flexibility Score: inf
ROOT
ATOM      1  C   UNL     1     -44.139  40.399  28.109  1.00  0.00     0.066 A 
ATOM      2  C   UNL     1     -43.322  40.256  29.225  1.00  0.00     0.051 A 
ATOM      3  N   UNL     1     -43.398  39.221  30.102  1.00  0.00    -0.262 NA
ATOM      4  C   UNL     1     -44.326  38.273  29.857  1.00  0.00     0.034 A 
ATOM      5  C   UNL     1     -45.190  38.300  28.773  1.00  0.00     0.010 A 
ATOM      6  C   UNL     1     -45.094  39.393  27.896  1.00  0.00    -0.028 A 
ATOM      7  H   UNL     1     -42.540  40.957  29.488  1.00  0.00     0.086 H 
ATOM      8  H   UNL     1     -44.350  37.468  30.586  1.00  0.00     0.084 H 
ATOM      9  H   UNL     1     -45.790  39.427  27.064  1.00  0.00     0.065 H 
ENDROOT
BRANCH   1  10
ATOM     10  N   UNL     1     -44.020  41.510  27.213  1.00  0.00    -0.299 N 
ATOM     11  C   UNL     1     -43.059  43.118  25.924  1.00  0.00     0.009 A 
ATOM     12  C   UNL     1     -42.825  42.056  26.779  1.00  0.00     0.017 A 
ATOM     13  C   UNL     1     -44.475  43.229  25.798  1.00  0.00     0.067 A 
ATOM     14  H   UNL     1     -41.870  41.677  27.115  1.00  0.00     0.083 H 
ATOM     15  C   UNL     1     -45.042  42.250  26.614  1.00  0.00     0.150 A 
ATOM     16  C   UNL     1     -45.368  44.059  25.094  1.00  0.00     0.136 A 
ATOM     17  N   UNL     1     -46.367  42.056  26.773  1.00  0.00    -0.218 NA
ATOM     18  N   UNL     1     -46.690  43.889  25.251  1.00  0.00    -0.219 NA
ATOM     19  C   UNL     1     -47.112  42.917  26.074  1.00  0.00     0.120 A 
ATOM     20  H   UNL     1     -48.188  42.813  26.177  1.00  0.00     0.106 H 
BRANCH  11  21
ATOM     21  C   UNL     1     -41.998  43.964  25.297  1.00  0.00     0.074 C 
ATOM     22  H   UNL     1     -41.224  44.151  26.051  1.00  0.00     0.062 H 
ATOM     23  H   UNL     1     -42.358  44.947  24.985  1.00  0.00     0.062 H 
BRANCH  21  24
ATOM     24  O   UNL     1     -41.349  43.307  24.205  1.00  0.00    -0.380 OA
BRANCH  24  25
ATOM     25  C   UNL     1     -41.892  43.666  22.942  1.00  0.00     0.036 C 
ATOM     26  H   UNL     1     -42.468  42.837  22.521  1.00  0.00     0.053 H 
ATOM     27  H   UNL     1     -42.564  44.516  23.087  1.00  0.00     0.053 H 
ATOM     28  H   UNL     1     -41.103  43.967  22.247  1.00  0.00     0.053 H 
ENDBRANCH  24  25
ENDBRANCH  21  24
ENDBRANCH  11  21
BRANCH  16  29
ATOM     29  N   UNL     1     -44.985  45.053  24.200  1.00  0.00    -0.383 N 
ATOM     30  H   UNL     1     -45.079  44.689  23.256  1.00  0.00     0.158 HD
ATOM     31  H   UNL     1     -44.075  45.445  24.399  1.00  0.00     0.158 HD
ENDBRANCH  16  29
ENDBRANCH   1  10
BRANCH   5  32
ATOM     32  C   UNL     1     -46.231  37.227  28.591  1.00  0.00     0.115 C 
ATOM     33  H   UNL     1     -47.119  37.512  29.169  1.00  0.00     0.076 H 
ATOM     34  H   UNL     1     -45.840  36.269  28.952  1.00  0.00     0.076 H 
BRANCH  32  35
ATOM     35  O   UNL     1     -46.548  37.115  27.203  1.00  0.00    -0.489 OA
BRANCH  35  36
ATOM     36  C   UNL     1     -47.079  35.928  26.778  1.00  0.00     0.122 A 
ATOM     37  C   UNL     1     -48.387  35.696  27.198  1.00  0.00    -0.019 A 
ATOM     38  C   UNL     1     -46.435  34.974  25.988  1.00  0.00     0.007 A 
ATOM     39  C   UNL     1     -49.044  34.522  26.834  1.00  0.00    -0.049 A 
ATOM     40  H   UNL     1     -48.899  36.433  27.813  1.00  0.00     0.066 H 
ATOM     41  C   UNL     1     -47.066  33.795  25.608  1.00  0.00     0.076 A 
ATOM     42  H   UNL     1     -45.418  35.116  25.639  1.00  0.00     0.069 H 
ATOM     43  C   UNL     1     -48.387  33.571  26.039  1.00  0.00     0.001 A 
ATOM     44  H   UNL     1     -50.064  34.356  27.172  1.00  0.00     0.063 H 
ATOM     45  N   UNL     1     -46.397  32.913  24.846  1.00  0.00    -0.231 NA
ATOM     46  C   UNL     1     -49.005  32.379  25.653  1.00  0.00    -0.049 A 
ATOM     47  C   UNL     1     -47.006  31.765  24.469  1.00  0.00     0.129 A 
ATOM     48  C   UNL     1     -48.306  31.469  24.866  1.00  0.00    -0.019 A 
ATOM     49  H   UNL     1     -50.020  32.148  25.963  1.00  0.00     0.063 H 
ATOM     50  H   UNL     1     -48.775  30.536  24.574  1.00  0.00     0.066 H 
BRANCH  47  51
ATOM     51  N   UNL     1     -46.286  30.847  23.683  1.00  0.00    -0.356 N 
ATOM     52  C   UNL     1     -46.676  29.503  23.368  1.00  0.00     0.021 C 
ATOM     53  C   UNL     1     -45.845  31.104  22.341  1.00  0.00     0.021 C 
ATOM     54  C   UNL     1     -45.691  29.586  22.195  1.00  0.00    -0.018 C 
ATOM     55  H   UNL     1     -46.424  28.780  24.146  1.00  0.00     0.049 H 
ATOM     56  H   UNL     1     -47.729  29.418  23.082  1.00  0.00     0.049 H 
ATOM     57  H   UNL     1     -44.921  31.683  22.289  1.00  0.00     0.049 H 
ATOM     58  H   UNL     1     -46.622  31.551  21.710  1.00  0.00     0.049 H 
ATOM     59  H   UNL     1     -46.038  29.160  21.251  1.00  0.00     0.030 H 
ATOM     60  H   UNL     1     -44.687  29.210  22.420  1.00  0.00     0.030 H 
ENDBRANCH  47  51
ENDBRANCH  35  36
ENDBRANCH  32  35
ENDBRANCH   5  32
TORSDOF 9
ENDMDL
MODEL 7
REMARK VINA RESULT:      -9.0      2.052      2.964
REMARK SMILES COCc1cn(-c2cncc(COc3ccc4ccc(N5CCC5)nc4c3)c2)c2ncnc(N)c12
REMARK SMILES IDX 7 1 8 2 9 3 10 4 11 5 28 6 6 10 4 11 5 12 35 13 29 15 33 16
REMARK SMILES IDX 30 17 32 18 31 19 3 21 2 24 1 25 34 29 12 32 13 35 14 36
REMARK SMILES IDX 15 37 27 38 16 39 26 41 17 43 25 45 18 46 20 47 19 48 21 51
REMARK SMILES IDX 22 52 24 53 23 54
REMARK H PARENT 8 7 10 8 28 9 5 14 31 20 3 22 3 23 1 26 1 27 1 28 34 30 34 31
REMARK H PARENT 12 33 12 34 15 40 27 42 16 44 18 49 19 50 22 55 22 56 24 57
REMARK H PARENT 24 58 23 59 23 60
REMARK Flexibility Score: inf
ROOT
ATOM      1  C   UNL     1     -45.993  38.400  27.679  1.00  0.00     0.066 A 
ATOM      2  C   UNL     1     -45.699  37.976  28.970  1.00  0.00     0.051 A 
ATOM      3  N   UNL     1     -46.060  36.769  29.481  1.00  0.00    -0.262 NA
ATOM      4  C   UNL     1     -46.743  35.936  28.669  1.00  0.00     0.034 A 
ATOM      5  C   UNL     1     -47.086  36.242  27.361  1.00  0.00     0.010 A 
ATOM      6  C   UNL     1     -46.709  37.503  26.871  1.00  0.00    -0.028 A 
ATOM      7  H   UNL     1     -45.140  38.570  29.683  1.00  0.00     0.086 H 
ATOM      8  H   UNL     1     -47.012  34.986  29.122  1.00  0.00     0.084 H 
ATOM      9  H   UNL     1     -47.004  37.752  25.857  1.00  0.00     0.065 H 
ENDROOT
BRANCH   1  10
ATOM     10  N   UNL     1     -45.590  39.683  27.186  1.00  0.00    -0.299 N 
ATOM     11  C   UNL     1     -44.234  41.378  26.512  1.00  0.00     0.009 A 
ATOM     12  C   UNL     1     -44.279  40.084  26.996  1.00  0.00     0.017 A 
ATOM     13  C   UNL     1     -45.587  41.803  26.371  1.00  0.00     0.067 A 
ATOM     14  H   UNL     1     -43.445  39.438  27.233  1.00  0.00     0.083 H 
ATOM     15  C   UNL     1     -46.399  40.758  26.812  1.00  0.00     0.150 A 
ATOM     16  C   UNL     1     -46.244  42.968  25.930  1.00  0.00     0.136 A 
ATOM     17  N   UNL     1     -47.746  40.793  26.848  1.00  0.00    -0.218 NA
ATOM     18  N   UNL     1     -47.584  43.027  25.972  1.00  0.00    -0.219 NA
ATOM     19  C   UNL     1     -48.253  41.956  26.427  1.00  0.00     0.120 A 
ATOM     20  H   UNL     1     -49.334  42.044  26.449  1.00  0.00     0.106 H 
BRANCH  11  21
ATOM     21  C   UNL     1     -42.982  42.145  26.228  1.00  0.00     0.074 C 
ATOM     22  H   UNL     1     -43.266  43.164  25.939  1.00  0.00     0.062 H 
ATOM     23  H   UNL     1     -42.410  41.743  25.388  1.00  0.00     0.062 H 
BRANCH  21  24
ATOM     24  O   UNL     1     -42.144  42.269  27.380  1.00  0.00    -0.380 OA
BRANCH  24  25
ATOM     25  C   UNL     1     -42.758  42.999  28.434  1.00  0.00     0.036 C 
ATOM     26  H   UNL     1     -42.739  44.072  28.220  1.00  0.00     0.053 H 
ATOM     27  H   UNL     1     -43.800  42.679  28.509  1.00  0.00     0.053 H 
ATOM     28  H   UNL     1     -42.266  42.797  29.389  1.00  0.00     0.053 H 
ENDBRANCH  24  25
ENDBRANCH  21  24
ENDBRANCH  11  21
BRANCH  16  29
ATOM     29  N   UNL     1     -45.602  44.088  25.412  1.00  0.00    -0.383 N 
ATOM     30  H   UNL     1     -46.201  44.501  24.702  1.00  0.00     0.158 HD
ATOM     31  H   UNL     1     -44.660  43.904  25.098  1.00  0.00     0.158 HD
ENDBRANCH  16  29
ENDBRANCH   1  10
BRANCH   5  32
ATOM     32  C   UNL     1     -47.888  35.277  26.530  1.00  0.00     0.115 C 
ATOM     33  H   UNL     1     -47.501  35.306  25.504  1.00  0.00     0.076 H 
ATOM     34  H   UNL     1     -48.945  35.569  26.540  1.00  0.00     0.076 H 
BRANCH  32  35
ATOM     35  O   UNL     1     -47.757  33.965  27.081  1.00  0.00    -0.489 OA
BRANCH  35  36
ATOM     36  C   UNL     1     -47.610  32.930  26.200  1.00  0.00     0.122 A 
ATOM     37  C   UNL     1     -46.778  33.204  25.116  1.00  0.00    -0.019 A 
ATOM     38  C   UNL     1     -48.207  31.671  26.301  1.00  0.00     0.007 A 
ATOM     39  C   UNL     1     -46.546  32.233  24.145  1.00  0.00    -0.049 A 
ATOM     40  H   UNL     1     -46.307  34.180  25.027  1.00  0.00     0.066 H 
ATOM     41  C   UNL     1     -47.993  30.683  25.348  1.00  0.00     0.076 A 
ATOM     42  H   UNL     1     -48.861  31.416  27.129  1.00  0.00     0.069 H 
ATOM     43  C   UNL     1     -47.151  30.972  24.257  1.00  0.00     0.001 A 
ATOM     44  H   UNL     1     -45.895  32.464  23.306  1.00  0.00     0.063 H 
ATOM     45  N   UNL     1     -48.593  29.489  25.498  1.00  0.00    -0.231 NA
ATOM     46  C   UNL     1     -46.950  29.969  23.306  1.00  0.00    -0.049 A 
ATOM     47  C   UNL     1     -48.386  28.521  24.576  1.00  0.00     0.129 A 
ATOM     48  C   UNL     1     -47.576  28.737  23.467  1.00  0.00    -0.019 A 
ATOM     49  H   UNL     1     -46.317  30.139  22.439  1.00  0.00     0.063 H 
ATOM     50  H   UNL     1     -47.435  27.959  22.724  1.00  0.00     0.066 H 
BRANCH  47  51
ATOM     51  N   UNL     1     -49.034  27.283  24.743  1.00  0.00    -0.356 N 
ATOM     52  C   UNL     1     -48.566  26.174  25.523  1.00  0.00     0.021 C 
ATOM     53  C   UNL     1     -50.381  27.132  25.214  1.00  0.00     0.021 C 
ATOM     54  C   UNL     1     -50.016  25.676  25.522  1.00  0.00    -0.018 C 
ATOM     55  H   UNL     1     -47.848  25.540  24.999  1.00  0.00     0.049 H 
ATOM     56  H   UNL     1     -48.181  26.472  26.504  1.00  0.00     0.049 H 
ATOM     57  H   UNL     1     -51.134  27.281  24.437  1.00  0.00     0.049 H 
ATOM     58  H   UNL     1     -50.602  27.748  26.093  1.00  0.00     0.049 H 
ATOM     59  H   UNL     1     -50.386  25.282  26.472  1.00  0.00     0.030 H 
ATOM     60  H   UNL     1     -50.252  24.971  24.717  1.00  0.00     0.030 H 
ENDBRANCH  47  51
ENDBRANCH  35  36
ENDBRANCH  32  35
ENDBRANCH   5  32
TORSDOF 9
ENDMDL
