MODEL 1
REMARK VINA RESULT:     -11.0      0.000      0.000
REMARK SMILES Cn1ccc(-c2cn(-c3cncc(COc4ccc5ccc(N6CC7(CCC7)C6)nc5c4)c3)c3ncnc(N)c23)n1
REMARK SMILES IDX 9 1 10 2 11 3 12 4 13 5 33 6 8 10 6 11 7 12 40 13 34 15
REMARK SMILES IDX 38 16 35 17 37 18 36 19 5 21 2 22 3 23 41 24 4 25 1 28 39 32
REMARK SMILES IDX 14 35 15 38 16 39 17 40 32 41 18 42 31 44 19 46 30 48 20 49
REMARK SMILES IDX 22 50 21 51 23 54 24 55 29 56 25 57 26 62 28 63 27 64
REMARK H PARENT 10 7 12 8 33 9 7 14 36 20 3 26 4 27 1 29 1 30 1 31 39 33 39 34
REMARK H PARENT 14 36 14 37 17 43 32 45 18 47 20 52 21 53 24 58 24 59 29 60
REMARK H PARENT 29 61 26 65 26 66 28 67 28 68 27 69 27 70
REMARK Flexibility Score: inf
ROOT
ATOM      1  C   UNL     1     -47.991  33.381  26.284  1.00  0.00     0.066 A 
ATOM      2  C   UNL     1     -49.175  34.079  26.489  1.00  0.00     0.051 A 
ATOM      3  N   UNL     1     -49.255  35.276  27.127  1.00  0.00    -0.262 NA
ATOM      4  C   UNL     1     -48.102  35.811  27.577  1.00  0.00     0.034 A 
ATOM      5  C   UNL     1     -46.862  35.203  27.439  1.00  0.00     0.010 A 
ATOM      6  C   UNL     1     -46.817  33.964  26.785  1.00  0.00    -0.028 A 
ATOM      7  H   UNL     1     -50.139  33.738  26.130  1.00  0.00     0.086 H 
ATOM      8  H   UNL     1     -48.206  36.776  28.067  1.00  0.00     0.084 H 
ATOM      9  H   UNL     1     -45.854  33.474  26.688  1.00  0.00     0.065 H 
ENDROOT
BRANCH   1  10
ATOM     10  N   UNL     1     -47.955  32.133  25.583  1.00  0.00    -0.299 N 
ATOM     11  C   UNL     1     -48.429  29.997  25.033  1.00  0.00     0.033 A 
ATOM     12  C   UNL     1     -48.699  31.017  25.919  1.00  0.00     0.021 A 
ATOM     13  C   UNL     1     -47.441  30.461  24.126  1.00  0.00     0.071 A 
ATOM     14  H   UNL     1     -49.362  30.998  26.772  1.00  0.00     0.083 H 
ATOM     15  C   UNL     1     -47.191  31.793  24.464  1.00  0.00     0.150 A 
ATOM     16  C   UNL     1     -46.699  29.934  23.055  1.00  0.00     0.137 A 
ATOM     17  N   UNL     1     -46.350  32.610  23.799  1.00  0.00    -0.218 NA
ATOM     18  N   UNL     1     -45.851  30.732  22.384  1.00  0.00    -0.219 NA
ATOM     19  C   UNL     1     -45.733  32.008  22.777  1.00  0.00     0.120 A 
ATOM     20  H   UNL     1     -45.049  32.623  22.200  1.00  0.00     0.106 H 
BRANCH  11  21
ATOM     21  C   UNL     1     -49.057  28.679  25.063  1.00  0.00     0.095 A 
ATOM     22  N   UNL     1     -49.438  26.666  25.573  1.00  0.00    -0.275 N 
ATOM     23  C   UNL     1     -50.471  27.011  24.752  1.00  0.00     0.025 A 
ATOM     24  N   UNL     1     -48.569  27.668  25.789  1.00  0.00    -0.173 NA
ATOM     25  C   UNL     1     -50.259  28.327  24.411  1.00  0.00    -0.016 A 
ATOM     26  H   UNL     1     -51.258  26.317  24.493  1.00  0.00     0.084 H 
ATOM     27  H   UNL     1     -50.887  28.946  23.785  1.00  0.00     0.066 H 
BRANCH  22  28
ATOM     28  C   UNL     1     -49.218  25.389  26.205  1.00  0.00     0.030 C 
ATOM     29  H   UNL     1     -50.189  24.965  26.475  1.00  0.00     0.048 H 
ATOM     30  H   UNL     1     -48.699  24.740  25.495  1.00  0.00     0.048 H 
ATOM     31  H   UNL     1     -48.608  25.526  27.101  1.00  0.00     0.048 H 
ENDBRANCH  22  28
ENDBRANCH  11  21
BRANCH  16  32
ATOM     32  N   UNL     1     -46.740  28.607  22.641  1.00  0.00    -0.383 N 
ATOM     33  H   UNL     1     -47.192  28.478  21.744  1.00  0.00     0.158 HD
ATOM     34  H   UNL     1     -47.105  28.031  23.391  1.00  0.00     0.158 HD
ENDBRANCH  16  32
ENDBRANCH   1  10
BRANCH   5  35
ATOM     35  C   UNL     1     -45.622  35.860  27.985  1.00  0.00     0.115 C 
ATOM     36  H   UNL     1     -45.111  35.128  28.622  1.00  0.00     0.076 H 
ATOM     37  H   UNL     1     -44.895  36.119  27.207  1.00  0.00     0.076 H 
BRANCH  35  38
ATOM     38  O   UNL     1     -45.930  36.982  28.816  1.00  0.00    -0.489 OA
BRANCH  38  39
ATOM     39  C   UNL     1     -45.104  38.072  28.783  1.00  0.00     0.122 A 
ATOM     40  C   UNL     1     -44.278  38.209  29.898  1.00  0.00    -0.019 A 
ATOM     41  C   UNL     1     -45.024  39.018  27.759  1.00  0.00     0.007 A 
ATOM     42  C   UNL     1     -43.400  39.287  29.995  1.00  0.00    -0.049 A 
ATOM     43  H   UNL     1     -44.328  37.477  30.701  1.00  0.00     0.066 H 
ATOM     44  C   UNL     1     -44.161  40.104  27.832  1.00  0.00     0.076 A 
ATOM     45  H   UNL     1     -45.631  38.947  26.865  1.00  0.00     0.069 H 
ATOM     46  C   UNL     1     -43.341  40.239  28.966  1.00  0.00     0.001 A 
ATOM     47  H   UNL     1     -42.770  39.380  30.876  1.00  0.00     0.063 H 
ATOM     48  N   UNL     1     -44.143  40.987  26.819  1.00  0.00    -0.231 NA
ATOM     49  C   UNL     1     -42.486  41.342  29.023  1.00  0.00    -0.049 A 
ATOM     50  C   UNL     1     -43.317  42.055  26.882  1.00  0.00     0.129 A 
ATOM     51  C   UNL     1     -42.479  42.258  27.974  1.00  0.00    -0.019 A 
ATOM     52  H   UNL     1     -41.835  41.502  29.877  1.00  0.00     0.063 H 
ATOM     53  H   UNL     1     -41.833  43.128  28.021  1.00  0.00     0.066 H 
BRANCH  50  54
ATOM     54  N   UNL     1     -43.338  42.982  25.826  1.00  0.00    -0.355 N 
ATOM     55  C   UNL     1     -43.816  42.702  24.494  1.00  0.00     0.027 C 
ATOM     56  C   UNL     1     -42.249  43.802  25.364  1.00  0.00     0.027 C 
ATOM     57  C   UNL     1     -42.988  43.880  24.064  1.00  0.00     0.005 C 
ATOM     58  H   UNL     1     -44.902  42.793  24.407  1.00  0.00     0.050 H 
ATOM     59  H   UNL     1     -43.482  41.728  24.123  1.00  0.00     0.050 H 
ATOM     60  H   UNL     1     -42.145  44.731  25.930  1.00  0.00     0.050 H 
ATOM     61  H   UNL     1     -41.297  43.261  25.334  1.00  0.00     0.050 H 
ATOM     62  C   UNL     1     -43.689  45.157  23.666  1.00  0.00    -0.044 C 
ATOM     63  C   UNL     1     -42.247  43.831  22.755  1.00  0.00    -0.044 C 
ATOM     64  C   UNL     1     -43.337  44.784  22.203  1.00  0.00    -0.052 C 
ATOM     65  H   UNL     1     -44.758  45.228  23.886  1.00  0.00     0.027 H 
ATOM     66  H   UNL     1     -43.194  46.072  24.011  1.00  0.00     0.027 H 
ATOM     67  H   UNL     1     -41.249  44.284  22.785  1.00  0.00     0.027 H 
ATOM     68  H   UNL     1     -42.181  42.859  22.258  1.00  0.00     0.027 H 
ATOM     69  H   UNL     1     -42.976  45.605  21.579  1.00  0.00     0.027 H 
ATOM     70  H   UNL     1     -44.145  44.264  21.675  1.00  0.00     0.027 H 
ENDBRANCH  50  54
ENDBRANCH  38  39
ENDBRANCH  35  38
ENDBRANCH   5  35
TORSDOF 8
ENDMDL
MODEL 2
REMARK VINA RESULT:     -11.0      1.760      2.612
REMARK SMILES Cn1ccc(-c2cn(-c3cncc(COc4ccc5ccc(N6CC7(CCC7)C6)nc5c4)c3)c3ncnc(N)c23)n1
REMARK SMILES IDX 9 1 10 2 11 3 12 4 13 5 33 6 8 10 6 11 7 12 40 13 34 15
REMARK SMILES IDX 38 16 35 17 37 18 36 19 5 21 2 22 3 23 41 24 4 25 1 28 39 32
REMARK SMILES IDX 14 35 15 38 16 39 17 40 32 41 18 42 31 44 19 46 30 48 20 49
REMARK SMILES IDX 22 50 21 51 23 54 24 55 29 56 25 57 26 62 28 63 27 64
REMARK H PARENT 10 7 12 8 33 9 7 14 36 20 3 26 4 27 1 29 1 30 1 31 39 33 39 34
REMARK H PARENT 14 36 14 37 17 43 32 45 18 47 20 52 21 53 24 58 24 59 29 60
REMARK H PARENT 29 61 26 65 26 66 28 67 28 68 27 69 27 70
REMARK Flexibility Score: inf
ROOT
ATOM      1  C   UNL     1     -47.919  32.423  25.395  1.00  0.00     0.066 A 
ATOM      2  C   UNL     1     -46.619  32.797  25.072  1.00  0.00     0.051 A 
ATOM      3  N   UNL     1     -46.052  33.976  25.435  1.00  0.00    -0.262 NA
ATOM      4  C   UNL     1     -46.808  34.823  26.163  1.00  0.00     0.034 A 
ATOM      5  C   UNL     1     -48.119  34.564  26.537  1.00  0.00     0.010 A 
ATOM      6  C   UNL     1     -48.677  33.342  26.136  1.00  0.00    -0.028 A 
ATOM      7  H   UNL     1     -45.935  32.162  24.522  1.00  0.00     0.086 H 
ATOM      8  H   UNL     1     -46.312  35.748  26.448  1.00  0.00     0.084 H 
ATOM      9  H   UNL     1     -49.707  33.139  26.409  1.00  0.00     0.065 H 
ENDROOT
BRANCH   1  10
ATOM     10  N   UNL     1     -48.464  31.156  25.008  1.00  0.00    -0.299 N 
ATOM     11  C   UNL     1     -48.959  28.957  25.064  1.00  0.00     0.033 A 
ATOM     12  C   UNL     1     -48.297  29.977  25.710  1.00  0.00     0.021 A 
ATOM     13  C   UNL     1     -49.530  29.491  23.881  1.00  0.00     0.071 A 
ATOM     14  H   UNL     1     -47.707  29.919  26.614  1.00  0.00     0.083 H 
ATOM     15  C   UNL     1     -49.241  30.858  23.886  1.00  0.00     0.150 A 
ATOM     16  C   UNL     1     -50.253  29.006  22.777  1.00  0.00     0.137 A 
ATOM     17  N   UNL     1     -49.662  31.737  22.955  1.00  0.00    -0.218 NA
ATOM     18  N   UNL     1     -50.677  29.867  21.836  1.00  0.00    -0.219 NA
ATOM     19  C   UNL     1     -50.374  31.165  21.979  1.00  0.00     0.120 A 
ATOM     20  H   UNL     1     -50.746  31.829  21.204  1.00  0.00     0.106 H 
BRANCH  11  21
ATOM     21  C   UNL     1     -49.025  27.576  25.536  1.00  0.00     0.095 A 
ATOM     22  N   UNL     1     -48.415  25.678  26.233  1.00  0.00    -0.275 N 
ATOM     23  C   UNL     1     -49.778  25.634  26.271  1.00  0.00     0.025 A 
ATOM     24  N   UNL     1     -47.930  26.855  25.801  1.00  0.00    -0.173 NA
ATOM     25  C   UNL     1     -50.208  26.866  25.834  1.00  0.00    -0.016 A 
ATOM     26  H   UNL     1     -50.317  24.760  26.608  1.00  0.00     0.084 H 
ATOM     27  H   UNL     1     -51.231  27.204  25.749  1.00  0.00     0.066 H 
BRANCH  22  28
ATOM     28  C   UNL     1     -47.499  24.630  26.608  1.00  0.00     0.030 C 
ATOM     29  H   UNL     1     -48.081  23.762  26.931  1.00  0.00     0.048 H 
ATOM     30  H   UNL     1     -46.887  24.381  25.738  1.00  0.00     0.048 H 
ATOM     31  H   UNL     1     -46.863  24.978  27.426  1.00  0.00     0.048 H 
ENDBRANCH  22  28
ENDBRANCH  11  21
BRANCH  16  32
ATOM     32  N   UNL     1     -50.547  27.666  22.550  1.00  0.00    -0.383 N 
ATOM     33  H   UNL     1     -49.734  27.109  22.314  1.00  0.00     0.158 HD
ATOM     34  H   UNL     1     -51.318  27.597  21.894  1.00  0.00     0.158 HD
ENDBRANCH  16  32
ENDBRANCH   1  10
BRANCH   5  35
ATOM     35  C   UNL     1     -48.901  35.572  27.336  1.00  0.00     0.115 C 
ATOM     36  H   UNL     1     -48.906  36.512  26.772  1.00  0.00     0.076 H 
ATOM     37  H   UNL     1     -49.958  35.303  27.450  1.00  0.00     0.076 H 
BRANCH  35  38
ATOM     38  O   UNL     1     -48.287  35.852  28.597  1.00  0.00    -0.489 OA
BRANCH  38  39
ATOM     39  C   UNL     1     -47.247  36.739  28.640  1.00  0.00     0.122 A 
ATOM     40  C   UNL     1     -46.397  36.583  29.735  1.00  0.00    -0.019 A 
ATOM     41  C   UNL     1     -46.978  37.744  27.710  1.00  0.00     0.007 A 
ATOM     42  C   UNL     1     -45.305  37.434  29.905  1.00  0.00    -0.049 A 
ATOM     43  H   UNL     1     -46.592  35.801  30.465  1.00  0.00     0.066 H 
ATOM     44  C   UNL     1     -45.901  38.609  27.857  1.00  0.00     0.076 A 
ATOM     45  H   UNL     1     -47.598  37.895  26.835  1.00  0.00     0.069 H 
ATOM     46  C   UNL     1     -45.056  38.451  28.971  1.00  0.00     0.001 A 
ATOM     47  H   UNL     1     -44.659  37.301  30.769  1.00  0.00     0.063 H 
ATOM     48  N   UNL     1     -45.707  39.566  26.935  1.00  0.00    -0.231 NA
ATOM     49  C   UNL     1     -43.984  39.335  29.104  1.00  0.00    -0.049 A 
ATOM     50  C   UNL     1     -44.669  40.422  27.072  1.00  0.00     0.129 A 
ATOM     51  C   UNL     1     -43.794  40.331  28.149  1.00  0.00    -0.019 A 
ATOM     52  H   UNL     1     -43.303  39.266  29.947  1.00  0.00     0.063 H 
ATOM     53  H   UNL     1     -42.975  41.034  28.257  1.00  0.00     0.066 H 
BRANCH  50  54
ATOM     54  N   UNL     1     -44.504  41.435  26.111  1.00  0.00    -0.355 N 
ATOM     55  C   UNL     1     -43.510  42.478  26.178  1.00  0.00     0.027 C 
ATOM     56  C   UNL     1     -45.520  42.306  25.580  1.00  0.00     0.027 C 
ATOM     57  C   UNL     1     -44.400  43.239  25.236  1.00  0.00     0.005 C 
ATOM     58  H   UNL     1     -42.536  42.158  25.801  1.00  0.00     0.050 H 
ATOM     59  H   UNL     1     -43.413  42.903  27.182  1.00  0.00     0.050 H 
ATOM     60  H   UNL     1     -46.067  41.862  24.745  1.00  0.00     0.050 H 
ATOM     61  H   UNL     1     -46.212  42.664  26.348  1.00  0.00     0.050 H 
ATOM     62  C   UNL     1     -43.966  43.404  23.798  1.00  0.00    -0.044 C 
ATOM     63  C   UNL     1     -44.562  44.726  25.401  1.00  0.00    -0.044 C 
ATOM     64  C   UNL     1     -43.638  44.874  24.164  1.00  0.00    -0.052 C 
ATOM     65  H   UNL     1     -43.115  42.805  23.463  1.00  0.00     0.027 H 
ATOM     66  H   UNL     1     -44.777  43.311  23.067  1.00  0.00     0.027 H 
ATOM     67  H   UNL     1     -45.581  45.090  25.227  1.00  0.00     0.027 H 
ATOM     68  H   UNL     1     -44.178  45.167  26.325  1.00  0.00     0.027 H 
ATOM     69  H   UNL     1     -43.946  45.624  23.431  1.00  0.00     0.027 H 
ATOM     70  H   UNL     1     -42.586  45.039  24.423  1.00  0.00     0.027 H 
ENDBRANCH  50  54
ENDBRANCH  38  39
ENDBRANCH  35  38
ENDBRANCH   5  35
TORSDOF 8
ENDMDL
MODEL 3
REMARK VINA RESULT:     -10.8      2.123     12.635
REMARK SMILES Cn1ccc(-c2cn(-c3cncc(COc4ccc5ccc(N6CC7(CCC7)C6)nc5c4)c3)c3ncnc(N)c23)n1
REMARK SMILES IDX 9 1 10 2 11 3 12 4 13 5 33 6 8 10 6 11 7 12 40 13 34 15
REMARK SMILES IDX 38 16 35 17 37 18 36 19 5 21 2 22 3 23 41 24 4 25 1 28 39 32
REMARK SMILES IDX 14 35 15 38 16 39 17 40 32 41 18 42 31 44 19 46 30 48 20 49
REMARK SMILES IDX 22 50 21 51 23 54 24 55 29 56 25 57 26 62 28 63 27 64
REMARK H PARENT 10 7 12 8 33 9 7 14 36 20 3 26 4 27 1 29 1 30 1 31 39 33 39 34
REMARK H PARENT 14 36 14 37 17 43 32 45 18 47 20 52 21 53 24 58 24 59 29 60
REMARK H PARENT 29 61 26 65 26 66 28 67 28 68 27 69 27 70
REMARK Flexibility Score: inf
ROOT
ATOM      1  C   UNL     1     -45.880  38.400  28.216  1.00  0.00     0.066 A 
ATOM      2  C   UNL     1     -45.508  37.771  29.400  1.00  0.00     0.051 A 
ATOM      3  N   UNL     1     -46.059  36.616  29.856  1.00  0.00    -0.262 NA
ATOM      4  C   UNL     1     -47.020  36.052  29.098  1.00  0.00     0.034 A 
ATOM      5  C   UNL     1     -47.480  36.591  27.905  1.00  0.00     0.010 A 
ATOM      6  C   UNL     1     -46.898  37.789  27.468  1.00  0.00    -0.028 A 
ATOM      7  H   UNL     1     -44.722  38.139  30.049  1.00  0.00     0.086 H 
ATOM      8  H   UNL     1     -47.423  35.121  29.490  1.00  0.00     0.084 H 
ATOM      9  H   UNL     1     -47.265  38.226  26.545  1.00  0.00     0.065 H 
ENDROOT
BRANCH   1  10
ATOM     10  N   UNL     1     -45.252  39.605  27.765  1.00  0.00    -0.299 N 
ATOM     11  C   UNL     1     -44.865  41.467  26.554  1.00  0.00     0.033 A 
ATOM     12  C   UNL     1     -45.696  40.380  26.710  1.00  0.00     0.021 A 
ATOM     13  C   UNL     1     -43.825  41.359  27.511  1.00  0.00     0.071 A 
ATOM     14  H   UNL     1     -46.560  40.113  26.118  1.00  0.00     0.083 H 
ATOM     15  C   UNL     1     -44.104  40.221  28.270  1.00  0.00     0.150 A 
ATOM     16  C   UNL     1     -42.657  42.067  27.846  1.00  0.00     0.137 A 
ATOM     17  N   UNL     1     -43.379  39.803  29.327  1.00  0.00    -0.218 NA
ATOM     18  N   UNL     1     -41.917  41.661  28.893  1.00  0.00    -0.219 NA
ATOM     19  C   UNL     1     -42.317  40.577  29.573  1.00  0.00     0.120 A 
ATOM     20  H   UNL     1     -41.700  40.291  30.419  1.00  0.00     0.106 H 
BRANCH  11  21
ATOM     21  C   UNL     1     -45.047  42.518  25.555  1.00  0.00     0.095 A 
ATOM     22  N   UNL     1     -44.754  43.695  23.827  1.00  0.00    -0.275 N 
ATOM     23  C   UNL     1     -45.882  44.205  24.400  1.00  0.00     0.025 A 
ATOM     24  N   UNL     1     -44.232  42.657  24.504  1.00  0.00    -0.173 NA
ATOM     25  C   UNL     1     -46.109  43.448  25.526  1.00  0.00    -0.016 A 
ATOM     26  H   UNL     1     -46.424  45.033  23.967  1.00  0.00     0.084 H 
ATOM     27  H   UNL     1     -46.929  43.550  26.223  1.00  0.00     0.066 H 
BRANCH  22  28
ATOM     28  C   UNL     1     -44.114  44.143  22.615  1.00  0.00     0.030 C 
ATOM     29  H   UNL     1     -43.704  43.271  22.098  1.00  0.00     0.048 H 
ATOM     30  H   UNL     1     -44.864  44.639  21.994  1.00  0.00     0.048 H 
ATOM     31  H   UNL     1     -43.312  44.842  22.863  1.00  0.00     0.048 H 
ENDBRANCH  22  28
ENDBRANCH  11  21
BRANCH  16  32
ATOM     32  N   UNL     1     -42.165  43.161  27.144  1.00  0.00    -0.383 N 
ATOM     33  H   UNL     1     -42.120  44.009  27.697  1.00  0.00     0.158 HD
ATOM     34  H   UNL     1     -42.665  43.250  26.265  1.00  0.00     0.158 HD
ENDBRANCH  16  32
ENDBRANCH   1  10
BRANCH   5  35
ATOM     35  C   UNL     1     -48.571  35.906  27.126  1.00  0.00     0.115 C 
ATOM     36  H   UNL     1     -49.532  36.289  27.491  1.00  0.00     0.076 H 
ATOM     37  H   UNL     1     -48.554  36.150  26.057  1.00  0.00     0.076 H 
BRANCH  35  38
ATOM     38  O   UNL     1     -48.582  34.493  27.345  1.00  0.00    -0.489 OA
BRANCH  38  39
ATOM     39  C   UNL     1     -48.084  33.671  26.371  1.00  0.00     0.122 A 
ATOM     40  C   UNL     1     -46.759  33.926  26.019  1.00  0.00    -0.019 A 
ATOM     41  C   UNL     1     -48.769  32.637  25.731  1.00  0.00     0.007 A 
ATOM     42  C   UNL     1     -46.136  33.168  25.028  1.00  0.00    -0.049 A 
ATOM     43  H   UNL     1     -46.211  34.726  26.512  1.00  0.00     0.066 H 
ATOM     44  C   UNL     1     -48.176  31.871  24.737  1.00  0.00     0.076 A 
ATOM     45  H   UNL     1     -49.793  32.389  25.981  1.00  0.00     0.069 H 
ATOM     46  C   UNL     1     -46.842  32.143  24.381  1.00  0.00     0.001 A 
ATOM     47  H   UNL     1     -45.105  33.388  24.762  1.00  0.00     0.063 H 
ATOM     48  N   UNL     1     -48.896  30.900  24.150  1.00  0.00    -0.231 NA
ATOM     49  C   UNL     1     -46.267  31.365  23.374  1.00  0.00    -0.049 A 
ATOM     50  C   UNL     1     -48.334  30.154  23.173  1.00  0.00     0.129 A 
ATOM     51  C   UNL     1     -47.021  30.367  22.763  1.00  0.00    -0.019 A 
ATOM     52  H   UNL     1     -45.243  31.534  23.053  1.00  0.00     0.063 H 
ATOM     53  H   UNL     1     -46.587  29.773  21.967  1.00  0.00     0.066 H 
BRANCH  50  54
ATOM     54  N   UNL     1     -49.116  29.165  22.550  1.00  0.00    -0.355 N 
ATOM     55  C   UNL     1     -50.545  29.238  22.373  1.00  0.00     0.027 C 
ATOM     56  C   UNL     1     -49.128  27.755  22.838  1.00  0.00     0.027 C 
ATOM     57  C   UNL     1     -50.497  27.743  22.229  1.00  0.00     0.005 C 
ATOM     58  H   UNL     1     -50.833  29.818  21.492  1.00  0.00     0.050 H 
ATOM     59  H   UNL     1     -51.062  29.611  23.263  1.00  0.00     0.050 H 
ATOM     60  H   UNL     1     -48.347  27.205  22.308  1.00  0.00     0.050 H 
ATOM     61  H   UNL     1     -49.088  27.543  23.911  1.00  0.00     0.050 H 
ATOM     62  C   UNL     1     -50.713  27.135  20.863  1.00  0.00    -0.044 C 
ATOM     63  C   UNL     1     -51.594  26.901  22.823  1.00  0.00    -0.044 C 
ATOM     64  C   UNL     1     -52.116  26.718  21.374  1.00  0.00    -0.052 C 
ATOM     65  H   UNL     1     -50.711  27.817  20.008  1.00  0.00     0.027 H 
ATOM     66  H   UNL     1     -50.063  26.282  20.639  1.00  0.00     0.027 H 
ATOM     67  H   UNL     1     -51.248  25.967  23.280  1.00  0.00     0.027 H 
ATOM     68  H   UNL     1     -52.285  27.399  23.508  1.00  0.00     0.027 H 
ATOM     69  H   UNL     1     -52.434  25.706  21.111  1.00  0.00     0.027 H 
ATOM     70  H   UNL     1     -52.910  27.424  21.104  1.00  0.00     0.027 H 
ENDBRANCH  50  54
ENDBRANCH  38  39
ENDBRANCH  35  38
ENDBRANCH   5  35
TORSDOF 8
ENDMDL
MODEL 4
REMARK VINA RESULT:     -10.1      2.254     12.546
REMARK SMILES Cn1ccc(-c2cn(-c3cncc(COc4ccc5ccc(N6CC7(CCC7)C6)nc5c4)c3)c3ncnc(N)c23)n1
REMARK SMILES IDX 9 1 10 2 11 3 12 4 13 5 33 6 8 10 6 11 7 12 40 13 34 15
REMARK SMILES IDX 38 16 35 17 37 18 36 19 5 21 2 22 3 23 41 24 4 25 1 28 39 32
REMARK SMILES IDX 14 35 15 38 16 39 17 40 32 41 18 42 31 44 19 46 30 48 20 49
REMARK SMILES IDX 22 50 21 51 23 54 24 55 29 56 25 57 26 62 28 63 27 64
REMARK H PARENT 10 7 12 8 33 9 7 14 36 20 3 26 4 27 1 29 1 30 1 31 39 33 39 34
REMARK H PARENT 14 36 14 37 17 43 32 45 18 47 20 52 21 53 24 58 24 59 29 60
REMARK H PARENT 29 61 26 65 26 66 28 67 28 68 27 69 27 70
REMARK Flexibility Score: inf
ROOT
ATOM      1  C   UNL     1     -45.794  39.063  28.127  1.00  0.00     0.066 A 
ATOM      2  C   UNL     1     -44.835  38.733  29.079  1.00  0.00     0.051 A 
ATOM      3  N   UNL     1     -44.886  37.622  29.860  1.00  0.00    -0.262 NA
ATOM      4  C   UNL     1     -45.935  36.794  29.682  1.00  0.00     0.034 A 
ATOM      5  C   UNL     1     -46.956  37.023  28.771  1.00  0.00     0.010 A 
ATOM      6  C   UNL     1     -46.878  38.183  27.989  1.00  0.00    -0.028 A 
ATOM      7  H   UNL     1     -43.946  39.325  29.260  1.00  0.00     0.086 H 
ATOM      8  H   UNL     1     -45.930  35.909  30.314  1.00  0.00     0.084 H 
ATOM      9  H   UNL     1     -47.682  38.378  27.286  1.00  0.00     0.065 H 
ENDROOT
BRANCH   1  10
ATOM     10  N   UNL     1     -45.683  40.234  27.310  1.00  0.00    -0.299 N 
ATOM     11  C   UNL     1     -44.761  41.838  26.020  1.00  0.00     0.033 A 
ATOM     12  C   UNL     1     -44.507  40.697  26.750  1.00  0.00     0.021 A 
ATOM     13  C   UNL     1     -46.139  42.143  26.158  1.00  0.00     0.071 A 
ATOM     14  H   UNL     1     -43.556  40.209  26.911  1.00  0.00     0.083 H 
ATOM     15  C   UNL     1     -46.694  41.119  26.930  1.00  0.00     0.150 A 
ATOM     16  C   UNL     1     -47.014  43.162  25.744  1.00  0.00     0.137 A 
ATOM     17  N   UNL     1     -48.002  41.011  27.239  1.00  0.00    -0.218 NA
ATOM     18  N   UNL     1     -48.321  43.075  26.048  1.00  0.00    -0.219 NA
ATOM     19  C   UNL     1     -48.739  42.017  26.756  1.00  0.00     0.120 A 
ATOM     20  H   UNL     1     -49.803  41.976  26.969  1.00  0.00     0.106 H 
BRANCH  11  21
ATOM     21  C   UNL     1     -43.758  42.584  25.264  1.00  0.00     0.095 A 
ATOM     22  N   UNL     1     -42.840  43.662  23.699  1.00  0.00    -0.275 N 
ATOM     23  C   UNL     1     -41.930  43.695  24.715  1.00  0.00     0.025 A 
ATOM     24  N   UNL     1     -43.968  43.001  24.012  1.00  0.00    -0.173 NA
ATOM     25  C   UNL     1     -42.506  43.010  25.759  1.00  0.00    -0.016 A 
ATOM     26  H   UNL     1     -40.979  44.199  24.621  1.00  0.00     0.084 H 
ATOM     27  H   UNL     1     -42.084  42.846  26.741  1.00  0.00     0.066 H 
BRANCH  22  28
ATOM     28  C   UNL     1     -42.706  44.254  22.391  1.00  0.00     0.030 C 
ATOM     29  H   UNL     1     -43.186  45.237  22.406  1.00  0.00     0.048 H 
ATOM     30  H   UNL     1     -41.641  44.351  22.165  1.00  0.00     0.048 H 
ATOM     31  H   UNL     1     -43.188  43.613  21.650  1.00  0.00     0.048 H 
ENDBRANCH  22  28
ENDBRANCH  11  21
BRANCH  16  32
ATOM     32  N   UNL     1     -46.626  44.308  25.057  1.00  0.00    -0.383 N 
ATOM     33  H   UNL     1     -46.716  45.156  25.603  1.00  0.00     0.158 HD
ATOM     34  H   UNL     1     -47.086  44.330  24.153  1.00  0.00     0.158 HD
ENDBRANCH  16  32
ENDBRANCH   1  10
BRANCH   5  35
ATOM     35  C   UNL     1     -48.102  36.055  28.646  1.00  0.00     0.115 C 
ATOM     36  H   UNL     1     -47.743  35.070  28.970  1.00  0.00     0.076 H 
ATOM     37  H   UNL     1     -48.937  36.288  29.318  1.00  0.00     0.076 H 
BRANCH  35  38
ATOM     38  O   UNL     1     -48.538  35.908  27.292  1.00  0.00    -0.489 OA
BRANCH  38  39
ATOM     39  C   UNL     1     -48.078  34.846  26.563  1.00  0.00     0.122 A 
ATOM     40  C   UNL     1     -46.735  34.933  26.196  1.00  0.00    -0.019 A 
ATOM     41  C   UNL     1     -48.816  33.726  26.178  1.00  0.00     0.007 A 
ATOM     42  C   UNL     1     -46.147  33.922  25.437  1.00  0.00    -0.049 A 
ATOM     43  H   UNL     1     -46.147  35.798  26.493  1.00  0.00     0.066 H 
ATOM     44  C   UNL     1     -48.257  32.707  25.418  1.00  0.00     0.076 A 
ATOM     45  H   UNL     1     -49.855  33.604  26.453  1.00  0.00     0.069 H 
ATOM     46  C   UNL     1     -46.905  32.809  25.042  1.00  0.00     0.001 A 
ATOM     47  H   UNL     1     -45.101  34.012  25.153  1.00  0.00     0.063 H 
ATOM     48  N   UNL     1     -49.026  31.663  25.067  1.00  0.00    -0.231 NA
ATOM     49  C   UNL     1     -46.364  31.778  24.272  1.00  0.00    -0.049 A 
ATOM     50  C   UNL     1     -48.497  30.669  24.317  1.00  0.00     0.129 A 
ATOM     51  C   UNL     1     -47.169  30.703  23.904  1.00  0.00    -0.019 A 
ATOM     52  H   UNL     1     -45.329  31.806  23.947  1.00  0.00     0.063 H 
ATOM     53  H   UNL     1     -46.762  29.908  23.289  1.00  0.00     0.066 H 
BRANCH  50  54
ATOM     54  N   UNL     1     -49.329  29.603  23.935  1.00  0.00    -0.355 N 
ATOM     55  C   UNL     1     -50.438  29.712  23.019  1.00  0.00     0.027 C 
ATOM     56  C   UNL     1     -50.012  28.677  24.800  1.00  0.00     0.027 C 
ATOM     57  C   UNL     1     -50.949  28.449  23.654  1.00  0.00     0.005 C 
ATOM     58  H   UNL     1     -50.129  29.658  21.972  1.00  0.00     0.050 H 
ATOM     59  H   UNL     1     -51.044  30.607  23.195  1.00  0.00     0.050 H 
ATOM     60  H   UNL     1     -49.385  27.834  25.102  1.00  0.00     0.050 H 
ATOM     61  H   UNL     1     -50.451  29.164  25.677  1.00  0.00     0.050 H 
ATOM     62  C   UNL     1     -50.883  27.161  22.867  1.00  0.00    -0.044 C 
ATOM     63  C   UNL     1     -52.425  28.277  23.890  1.00  0.00    -0.044 C 
ATOM     64  C   UNL     1     -52.415  27.305  22.682  1.00  0.00    -0.052 C 
ATOM     65  H   UNL     1     -50.298  27.170  21.943  1.00  0.00     0.027 H 
ATOM     66  H   UNL     1     -50.599  26.283  23.458  1.00  0.00     0.027 H 
ATOM     67  H   UNL     1     -52.675  27.788  24.838  1.00  0.00     0.027 H 
ATOM     68  H   UNL     1     -53.053  29.164  23.770  1.00  0.00     0.027 H 
ATOM     69  H   UNL     1     -52.996  26.388  22.809  1.00  0.00     0.027 H 
ATOM     70  H   UNL     1     -52.702  27.781  21.737  1.00  0.00     0.027 H 
ENDBRANCH  50  54
ENDBRANCH  38  39
ENDBRANCH  35  38
ENDBRANCH   5  35
TORSDOF 8
ENDMDL
MODEL 5
REMARK VINA RESULT:      -9.8      2.319      3.145
REMARK SMILES Cn1ccc(-c2cn(-c3cncc(COc4ccc5ccc(N6CC7(CCC7)C6)nc5c4)c3)c3ncnc(N)c23)n1
REMARK SMILES IDX 9 1 10 2 11 3 12 4 13 5 33 6 8 10 6 11 7 12 40 13 34 15
REMARK SMILES IDX 38 16 35 17 37 18 36 19 5 21 2 22 3 23 41 24 4 25 1 28 39 32
REMARK SMILES IDX 14 35 15 38 16 39 17 40 32 41 18 42 31 44 19 46 30 48 20 49
REMARK SMILES IDX 22 50 21 51 23 54 24 55 29 56 25 57 26 62 28 63 27 64
REMARK H PARENT 10 7 12 8 33 9 7 14 36 20 3 26 4 27 1 29 1 30 1 31 39 33 39 34
REMARK H PARENT 14 36 14 37 17 43 32 45 18 47 20 52 21 53 24 58 24 59 29 60
REMARK H PARENT 29 61 26 65 26 66 28 67 28 68 27 69 27 70
REMARK Flexibility Score: inf
ROOT
ATOM      1  C   UNL     1     -47.767  32.317  25.300  1.00  0.00     0.066 A 
ATOM      2  C   UNL     1     -46.450  32.742  25.160  1.00  0.00     0.051 A 
ATOM      3  N   UNL     1     -45.981  33.935  25.611  1.00  0.00    -0.262 NA
ATOM      4  C   UNL     1     -46.859  34.742  26.240  1.00  0.00     0.034 A 
ATOM      5  C   UNL     1     -48.198  34.431  26.430  1.00  0.00     0.010 A 
ATOM      6  C   UNL     1     -48.651  33.197  25.943  1.00  0.00    -0.028 A 
ATOM      7  H   UNL     1     -45.675  32.141  24.700  1.00  0.00     0.086 H 
ATOM      8  H   UNL     1     -46.441  35.679  26.600  1.00  0.00     0.084 H 
ATOM      9  H   UNL     1     -49.701  32.953  26.072  1.00  0.00     0.065 H 
ENDROOT
BRANCH   1  10
ATOM     10  N   UNL     1     -48.207  31.039  24.829  1.00  0.00    -0.299 N 
ATOM     11  C   UNL     1     -48.992  28.925  24.859  1.00  0.00     0.033 A 
ATOM     12  C   UNL     1     -48.634  30.003  25.638  1.00  0.00     0.021 A 
ATOM     13  C   UNL     1     -48.740  29.266  23.505  1.00  0.00     0.071 A 
ATOM     14  H   UNL     1     -48.644  30.076  26.716  1.00  0.00     0.083 H 
ATOM     15  C   UNL     1     -48.289  30.588  23.509  1.00  0.00     0.150 A 
ATOM     16  C   UNL     1     -48.818  28.632  22.253  1.00  0.00     0.137 A 
ATOM     17  N   UNL     1     -47.996  31.304  22.405  1.00  0.00    -0.218 NA
ATOM     18  N   UNL     1     -48.523  29.328  21.141  1.00  0.00    -0.219 NA
ATOM     19  C   UNL     1     -48.146  30.608  21.274  1.00  0.00     0.120 A 
ATOM     20  H   UNL     1     -47.930  31.139  20.352  1.00  0.00     0.106 H 
BRANCH  11  21
ATOM     21  C   UNL     1     -49.519  27.663  25.373  1.00  0.00     0.095 A 
ATOM     22  N   UNL     1     -50.876  26.231  26.125  1.00  0.00    -0.275 N 
ATOM     23  C   UNL     1     -49.708  25.544  25.966  1.00  0.00     0.025 A 
ATOM     24  N   UNL     1     -50.792  27.522  25.759  1.00  0.00    -0.173 NA
ATOM     25  C   UNL     1     -48.803  26.450  25.463  1.00  0.00    -0.016 A 
ATOM     26  H   UNL     1     -49.619  24.494  26.206  1.00  0.00     0.084 H 
ATOM     27  H   UNL     1     -47.773  26.259  25.194  1.00  0.00     0.066 H 
BRANCH  22  28
ATOM     28  C   UNL     1     -52.130  25.714  26.615  1.00  0.00     0.030 C 
ATOM     29  H   UNL     1     -51.934  25.134  27.521  1.00  0.00     0.048 H 
ATOM     30  H   UNL     1     -52.787  26.559  26.834  1.00  0.00     0.048 H 
ATOM     31  H   UNL     1     -52.583  25.076  25.853  1.00  0.00     0.048 H 
ENDBRANCH  22  28
ENDBRANCH  11  21
BRANCH  16  32
ATOM     32  N   UNL     1     -49.148  27.295  22.061  1.00  0.00    -0.383 N 
ATOM     33  H   UNL     1     -50.100  27.072  22.326  1.00  0.00     0.158 HD
ATOM     34  H   UNL     1     -48.437  26.708  22.485  1.00  0.00     0.158 HD
ENDBRANCH  16  32
ENDBRANCH   1  10
BRANCH   5  35
ATOM     35  C   UNL     1     -49.117  35.397  27.128  1.00  0.00     0.115 C 
ATOM     36  H   UNL     1     -49.561  36.046  26.363  1.00  0.00     0.076 H 
ATOM     37  H   UNL     1     -49.969  34.906  27.614  1.00  0.00     0.076 H 
BRANCH  35  38
ATOM     38  O   UNL     1     -48.413  36.251  28.033  1.00  0.00    -0.489 OA
BRANCH  38  39
ATOM     39  C   UNL     1     -48.454  37.603  27.830  1.00  0.00     0.122 A 
ATOM     40  C   UNL     1     -49.650  38.211  28.210  1.00  0.00    -0.019 A 
ATOM     41  C   UNL     1     -47.431  38.390  27.298  1.00  0.00     0.007 A 
ATOM     42  C   UNL     1     -49.826  39.584  28.041  1.00  0.00    -0.049 A 
ATOM     43  H   UNL     1     -50.454  37.610  28.629  1.00  0.00     0.066 H 
ATOM     44  C   UNL     1     -47.581  39.759  27.114  1.00  0.00     0.076 A 
ATOM     45  H   UNL     1     -46.478  37.969  27.005  1.00  0.00     0.069 H 
ATOM     46  C   UNL     1     -48.796  40.361  27.489  1.00  0.00     0.001 A 
ATOM     47  H   UNL     1     -50.769  40.038  28.335  1.00  0.00     0.063 H 
ATOM     48  N   UNL     1     -46.564  40.457  26.582  1.00  0.00    -0.231 NA
ATOM     49  C   UNL     1     -48.929  41.736  27.289  1.00  0.00    -0.049 A 
ATOM     50  C   UNL     1     -46.701  41.788  26.387  1.00  0.00     0.129 A 
ATOM     51  C   UNL     1     -47.874  42.453  26.729  1.00  0.00    -0.019 A 
ATOM     52  H   UNL     1     -49.846  42.254  27.553  1.00  0.00     0.063 H 
ATOM     53  H   UNL     1     -47.978  43.517  26.552  1.00  0.00     0.066 H 
BRANCH  50  54
ATOM     54  N   UNL     1     -45.635  42.492  25.801  1.00  0.00    -0.355 N 
ATOM     55  C   UNL     1     -45.782  43.657  24.962  1.00  0.00     0.027 C 
ATOM     56  C   UNL     1     -44.556  41.948  25.019  1.00  0.00     0.027 C 
ATOM     57  C   UNL     1     -44.412  43.322  24.441  1.00  0.00     0.005 C 
ATOM     58  H   UNL     1     -45.889  44.581  25.536  1.00  0.00     0.050 H 
ATOM     59  H   UNL     1     -46.598  43.556  24.240  1.00  0.00     0.050 H 
ATOM     60  H   UNL     1     -43.729  41.580  25.632  1.00  0.00     0.050 H 
ATOM     61  H   UNL     1     -44.891  41.176  24.319  1.00  0.00     0.050 H 
ATOM     62  C   UNL     1     -43.247  44.195  24.845  1.00  0.00    -0.044 C 
ATOM     63  C   UNL     1     -44.102  43.513  22.981  1.00  0.00    -0.044 C 
ATOM     64  C   UNL     1     -43.301  44.771  23.406  1.00  0.00    -0.052 C 
ATOM     65  H   UNL     1     -43.421  44.920  25.645  1.00  0.00     0.027 H 
ATOM     66  H   UNL     1     -42.322  43.647  25.057  1.00  0.00     0.027 H 
ATOM     67  H   UNL     1     -43.476  42.726  22.547  1.00  0.00     0.027 H 
ATOM     68  H   UNL     1     -44.949  43.702  22.315  1.00  0.00     0.027 H 
ATOM     69  H   UNL     1     -42.335  44.904  22.913  1.00  0.00     0.027 H 
ATOM     70  H   UNL     1     -43.874  45.701  23.326  1.00  0.00     0.027 H 
ENDBRANCH  50  54
ENDBRANCH  38  39
ENDBRANCH  35  38
ENDBRANCH   5  35
TORSDOF 8
ENDMDL
MODEL 6
REMARK VINA RESULT:      -9.5      2.307     12.769
REMARK SMILES Cn1ccc(-c2cn(-c3cncc(COc4ccc5ccc(N6CC7(CCC7)C6)nc5c4)c3)c3ncnc(N)c23)n1
REMARK SMILES IDX 9 1 10 2 11 3 12 4 13 5 33 6 8 10 6 11 7 12 40 13 34 15
REMARK SMILES IDX 38 16 35 17 37 18 36 19 5 21 2 22 3 23 41 24 4 25 1 28 39 32
REMARK SMILES IDX 14 35 15 38 16 39 17 40 32 41 18 42 31 44 19 46 30 48 20 49
REMARK SMILES IDX 22 50 21 51 23 54 24 55 29 56 25 57 26 62 28 63 27 64
REMARK H PARENT 10 7 12 8 33 9 7 14 36 20 3 26 4 27 1 29 1 30 1 31 39 33 39 34
REMARK H PARENT 14 36 14 37 17 43 32 45 18 47 20 52 21 53 24 58 24 59 29 60
REMARK H PARENT 29 61 26 65 26 66 28 67 28 68 27 69 27 70
REMARK Flexibility Score: inf
ROOT
ATOM      1  C   UNL     1     -45.762  39.629  27.515  1.00  0.00     0.066 A 
ATOM      2  C   UNL     1     -45.019  39.129  28.579  1.00  0.00     0.051 A 
ATOM      3  N   UNL     1     -45.291  37.961  29.217  1.00  0.00    -0.262 NA
ATOM      4  C   UNL     1     -46.346  37.249  28.772  1.00  0.00     0.034 A 
ATOM      5  C   UNL     1     -47.165  37.651  27.726  1.00  0.00     0.010 A 
ATOM      6  C   UNL     1     -46.862  38.866  27.097  1.00  0.00    -0.028 A 
ATOM      7  H   UNL     1     -44.138  39.620  28.975  1.00  0.00     0.086 H 
ATOM      8  H   UNL     1     -46.519  36.313  29.297  1.00  0.00     0.084 H 
ATOM      9  H   UNL     1     -47.508  39.196  26.290  1.00  0.00     0.065 H 
ENDROOT
BRANCH   1  10
ATOM     10  N   UNL     1     -45.420  40.856  26.859  1.00  0.00    -0.299 N 
ATOM     11  C   UNL     1     -45.655  42.774  25.697  1.00  0.00     0.033 A 
ATOM     12  C   UNL     1     -46.318  41.678  26.204  1.00  0.00     0.021 A 
ATOM     13  C   UNL     1     -44.277  42.624  25.995  1.00  0.00     0.071 A 
ATOM     14  H   UNL     1     -47.368  41.437  26.118  1.00  0.00     0.083 H 
ATOM     15  C   UNL     1     -44.161  41.450  26.744  1.00  0.00     0.150 A 
ATOM     16  C   UNL     1     -43.084  43.318  25.725  1.00  0.00     0.137 A 
ATOM     17  N   UNL     1     -43.012  40.985  27.272  1.00  0.00    -0.218 NA
ATOM     18  N   UNL     1     -41.927  42.866  26.240  1.00  0.00    -0.219 NA
ATOM     19  C   UNL     1     -41.954  41.750  26.983  1.00  0.00     0.120 A 
ATOM     20  H   UNL     1     -41.002  41.427  27.391  1.00  0.00     0.106 H 
BRANCH  11  21
ATOM     21  C   UNL     1     -46.293  43.869  24.970  1.00  0.00     0.095 A 
ATOM     22  N   UNL     1     -46.697  45.287  23.459  1.00  0.00    -0.275 N 
ATOM     23  C   UNL     1     -47.710  45.448  24.357  1.00  0.00     0.025 A 
ATOM     24  N   UNL     1     -45.825  44.322  23.802  1.00  0.00    -0.173 NA
ATOM     25  C   UNL     1     -47.482  44.525  25.352  1.00  0.00    -0.016 A 
ATOM     26  H   UNL     1     -48.496  46.176  24.216  1.00  0.00     0.084 H 
ATOM     27  H   UNL     1     -48.093  44.349  26.227  1.00  0.00     0.066 H 
BRANCH  22  28
ATOM     28  C   UNL     1     -46.498  46.017  22.231  1.00  0.00     0.030 C 
ATOM     29  H   UNL     1     -45.842  45.429  21.582  1.00  0.00     0.048 H 
ATOM     30  H   UNL     1     -47.472  46.167  21.759  1.00  0.00     0.048 H 
ATOM     31  H   UNL     1     -46.036  46.983  22.452  1.00  0.00     0.048 H 
ENDBRANCH  22  28
ENDBRANCH  11  21
BRANCH  16  32
ATOM     32  N   UNL     1     -42.989  44.446  24.917  1.00  0.00    -0.383 N 
ATOM     33  H   UNL     1     -42.371  45.157  25.288  1.00  0.00     0.158 HD
ATOM     34  H   UNL     1     -43.921  44.769  24.681  1.00  0.00     0.158 HD
ENDBRANCH  16  32
ENDBRANCH   1  10
BRANCH   5  35
ATOM     35  C   UNL     1     -48.335  36.804  27.301  1.00  0.00     0.115 C 
ATOM     36  H   UNL     1     -49.231  37.206  27.790  1.00  0.00     0.076 H 
ATOM     37  H   UNL     1     -48.544  36.868  26.227  1.00  0.00     0.076 H 
BRANCH  35  38
ATOM     38  O   UNL     1     -48.203  35.448  27.734  1.00  0.00    -0.489 OA
BRANCH  38  39
ATOM     39  C   UNL     1     -47.882  34.490  26.811  1.00  0.00     0.122 A 
ATOM     40  C   UNL     1     -46.547  34.494  26.410  1.00  0.00    -0.019 A 
ATOM     41  C   UNL     1     -48.752  33.544  26.266  1.00  0.00     0.007 A 
ATOM     42  C   UNL     1     -46.094  33.577  25.462  1.00  0.00    -0.049 A 
ATOM     43  H   UNL     1     -45.857  35.223  26.830  1.00  0.00     0.066 H 
ATOM     44  C   UNL     1     -48.329  32.623  25.316  1.00  0.00     0.076 A 
ATOM     45  H   UNL     1     -49.793  33.489  26.557  1.00  0.00     0.069 H 
ATOM     46  C   UNL     1     -46.983  32.643  24.910  1.00  0.00     0.001 A 
ATOM     47  H   UNL     1     -45.051  33.602  25.156  1.00  0.00     0.063 H 
ATOM     48  N   UNL     1     -49.220  31.749  24.819  1.00  0.00    -0.231 NA
ATOM     49  C   UNL     1     -46.580  31.713  23.949  1.00  0.00    -0.049 A 
ATOM     50  C   UNL     1     -48.825  30.854  23.886  1.00  0.00     0.129 A 
ATOM     51  C   UNL     1     -47.511  30.815  23.431  1.00  0.00    -0.019 A 
ATOM     52  H   UNL     1     -45.555  31.686  23.591  1.00  0.00     0.063 H 
ATOM     53  H   UNL     1     -47.210  30.104  22.670  1.00  0.00     0.066 H 
BRANCH  50  54
ATOM     54  N   UNL     1     -49.781  29.970  23.357  1.00  0.00    -0.355 N 
ATOM     55  C   UNL     1     -49.840  28.556  23.639  1.00  0.00     0.027 C 
ATOM     56  C   UNL     1     -50.145  29.806  21.974  1.00  0.00     0.027 C 
ATOM     57  C   UNL     1     -50.631  28.444  22.366  1.00  0.00     0.005 C 
ATOM     58  H   UNL     1     -50.359  28.333  24.574  1.00  0.00     0.050 H 
ATOM     59  H   UNL     1     -48.853  28.082  23.625  1.00  0.00     0.050 H 
ATOM     60  H   UNL     1     -50.900  30.524  21.645  1.00  0.00     0.050 H 
ATOM     61  H   UNL     1     -49.279  29.823  21.305  1.00  0.00     0.050 H 
ATOM     62  C   UNL     1     -52.113  28.164  22.451  1.00  0.00    -0.044 C 
ATOM     63  C   UNL     1     -50.418  27.263  21.458  1.00  0.00    -0.044 C 
ATOM     64  C   UNL     1     -51.772  26.724  21.988  1.00  0.00    -0.052 C 
ATOM     65  H   UNL     1     -52.578  28.239  23.438  1.00  0.00     0.027 H 
ATOM     66  H   UNL     1     -52.721  28.719  21.728  1.00  0.00     0.027 H 
ATOM     67  H   UNL     1     -50.437  27.507  20.389  1.00  0.00     0.027 H 
ATOM     68  H   UNL     1     -49.551  26.629  21.663  1.00  0.00     0.027 H 
ATOM     69  H   UNL     1     -52.440  26.299  21.234  1.00  0.00     0.027 H 
ATOM     70  H   UNL     1     -51.665  26.010  22.813  1.00  0.00     0.027 H 
ENDBRANCH  50  54
ENDBRANCH  38  39
ENDBRANCH  35  38
ENDBRANCH   5  35
TORSDOF 8
ENDMDL
MODEL 7
REMARK VINA RESULT:      -9.5      2.036     12.991
REMARK SMILES Cn1ccc(-c2cn(-c3cncc(COc4ccc5ccc(N6CC7(CCC7)C6)nc5c4)c3)c3ncnc(N)c23)n1
REMARK SMILES IDX 9 1 10 2 11 3 12 4 13 5 33 6 8 10 6 11 7 12 40 13 34 15
REMARK SMILES IDX 38 16 35 17 37 18 36 19 5 21 2 22 3 23 41 24 4 25 1 28 39 32
REMARK SMILES IDX 14 35 15 38 16 39 17 40 32 41 18 42 31 44 19 46 30 48 20 49
REMARK SMILES IDX 22 50 21 51 23 54 24 55 29 56 25 57 26 62 28 63 27 64
REMARK H PARENT 10 7 12 8 33 9 7 14 36 20 3 26 4 27 1 29 1 30 1 31 39 33 39 34
REMARK H PARENT 14 36 14 37 17 43 32 45 18 47 20 52 21 53 24 58 24 59 29 60
REMARK H PARENT 29 61 26 65 26 66 28 67 28 68 27 69 27 70
REMARK Flexibility Score: inf
ROOT
ATOM      1  C   UNL     1     -43.329  41.656  27.971  1.00  0.00     0.066 A 
ATOM      2  C   UNL     1     -42.423  41.643  29.026  1.00  0.00     0.051 A 
ATOM      3  N   UNL     1     -42.311  40.630  29.923  1.00  0.00    -0.262 NA
ATOM      4  C   UNL     1     -43.131  39.572  29.760  1.00  0.00     0.034 A 
ATOM      5  C   UNL     1     -44.080  39.476  28.752  1.00  0.00     0.010 A 
ATOM      6  C   UNL     1     -44.177  40.545  27.851  1.00  0.00    -0.028 A 
ATOM      7  H   UNL     1     -41.707  42.436  29.206  1.00  0.00     0.086 H 
ATOM      8  H   UNL     1     -42.998  38.775  30.488  1.00  0.00     0.084 H 
ATOM      9  H   UNL     1     -44.928  40.485  27.070  1.00  0.00     0.065 H 
ENDROOT
BRANCH   1  10
ATOM     10  N   UNL     1     -43.393  42.739  27.036  1.00  0.00    -0.299 N 
ATOM     11  C   UNL     1     -43.255  43.868  25.089  1.00  0.00     0.033 A 
ATOM     12  C   UNL     1     -43.075  42.644  25.694  1.00  0.00     0.021 A 
ATOM     13  C   UNL     1     -43.654  44.792  26.089  1.00  0.00     0.071 A 
ATOM     14  H   UNL     1     -42.725  41.726  25.245  1.00  0.00     0.083 H 
ATOM     15  C   UNL     1     -43.767  44.064  27.275  1.00  0.00     0.150 A 
ATOM     16  C   UNL     1     -43.932  46.168  26.166  1.00  0.00     0.137 A 
ATOM     17  N   UNL     1     -44.182  44.572  28.453  1.00  0.00    -0.218 NA
ATOM     18  N   UNL     1     -44.342  46.693  27.334  1.00  0.00    -0.219 NA
ATOM     19  C   UNL     1     -44.455  45.879  28.393  1.00  0.00     0.120 A 
ATOM     20  H   UNL     1     -44.802  46.339  29.313  1.00  0.00     0.106 H 
BRANCH  11  21
ATOM     21  C   UNL     1     -43.044  44.134  23.668  1.00  0.00     0.095 A 
ATOM     22  N   UNL     1     -43.345  44.879  21.716  1.00  0.00    -0.275 N 
ATOM     23  C   UNL     1     -42.137  44.250  21.658  1.00  0.00     0.025 A 
ATOM     24  N   UNL     1     -43.915  44.834  22.933  1.00  0.00    -0.173 NA
ATOM     25  C   UNL     1     -41.904  43.763  22.923  1.00  0.00    -0.016 A 
ATOM     26  H   UNL     1     -41.550  44.211  20.751  1.00  0.00     0.084 H 
ATOM     27  H   UNL     1     -41.031  43.222  23.261  1.00  0.00     0.066 H 
BRANCH  22  28
ATOM     28  C   UNL     1     -44.023  45.562  20.642  1.00  0.00     0.030 C 
ATOM     29  H   UNL     1     -43.603  46.568  20.552  1.00  0.00     0.048 H 
ATOM     30  H   UNL     1     -43.864  44.996  19.720  1.00  0.00     0.048 H 
ATOM     31  H   UNL     1     -45.091  45.622  20.865  1.00  0.00     0.048 H 
ENDBRANCH  22  28
ENDBRANCH  11  21
BRANCH  16  32
ATOM     32  N   UNL     1     -43.778  47.068  25.117  1.00  0.00    -0.383 N 
ATOM     33  H   UNL     1     -42.913  46.946  24.604  1.00  0.00     0.158 HD
ATOM     34  H   UNL     1     -43.948  48.009  25.454  1.00  0.00     0.158 HD
ENDBRANCH  16  32
ENDBRANCH   1  10
BRANCH   5  35
ATOM     35  C   UNL     1     -44.969  38.266  28.651  1.00  0.00     0.115 C 
ATOM     36  H   UNL     1     -44.330  37.377  28.714  1.00  0.00     0.076 H 
ATOM     37  H   UNL     1     -45.668  38.174  29.491  1.00  0.00     0.076 H 
BRANCH  35  38
ATOM     38  O   UNL     1     -45.644  38.199  27.392  1.00  0.00    -0.489 OA
BRANCH  38  39
ATOM     39  C   UNL     1     -46.634  37.269  27.224  1.00  0.00     0.122 A 
ATOM     40  C   UNL     1     -47.874  37.642  27.742  1.00  0.00    -0.019 A 
ATOM     41  C   UNL     1     -46.506  36.029  26.596  1.00  0.00     0.007 A 
ATOM     42  C   UNL     1     -48.964  36.777  27.649  1.00  0.00    -0.049 A 
ATOM     43  H   UNL     1     -47.990  38.607  28.230  1.00  0.00     0.066 H 
ATOM     44  C   UNL     1     -47.573  35.146  26.494  1.00  0.00     0.076 A 
ATOM     45  H   UNL     1     -45.569  35.701  26.163  1.00  0.00     0.069 H 
ATOM     46  C   UNL     1     -48.817  35.527  27.030  1.00  0.00     0.001 A 
ATOM     47  H   UNL     1     -49.920  37.083  28.066  1.00  0.00     0.063 H 
ATOM     48  N   UNL     1     -47.379  33.961  25.892  1.00  0.00    -0.231 NA
ATOM     49  C   UNL     1     -49.874  34.621  26.924  1.00  0.00    -0.049 A 
ATOM     50  C   UNL     1     -48.406  33.088  25.796  1.00  0.00     0.129 A 
ATOM     51  C   UNL     1     -49.665  33.391  26.306  1.00  0.00    -0.019 A 
ATOM     52  H   UNL     1     -50.856  34.857  27.325  1.00  0.00     0.063 H 
ATOM     53  H   UNL     1     -50.476  32.675  26.238  1.00  0.00     0.066 H 
BRANCH  50  54
ATOM     54  N   UNL     1     -48.172  31.841  25.189  1.00  0.00    -0.355 N 
ATOM     55  C   UNL     1     -48.484  31.522  23.817  1.00  0.00     0.027 C 
ATOM     56  C   UNL     1     -48.565  30.546  25.679  1.00  0.00     0.027 C 
ATOM     57  C   UNL     1     -48.460  30.086  24.258  1.00  0.00     0.005 C 
ATOM     58  H   UNL     1     -47.707  31.847  23.121  1.00  0.00     0.050 H 
ATOM     59  H   UNL     1     -49.462  31.905  23.508  1.00  0.00     0.050 H 
ATOM     60  H   UNL     1     -47.850  30.125  26.390  1.00  0.00     0.050 H 
ATOM     61  H   UNL     1     -49.575  30.544  26.101  1.00  0.00     0.050 H 
ATOM     62  C   UNL     1     -47.304  29.212  23.828  1.00  0.00    -0.044 C 
ATOM     63  C   UNL     1     -49.459  29.115  23.689  1.00  0.00    -0.044 C 
ATOM     64  C   UNL     1     -48.294  28.554  22.832  1.00  0.00    -0.052 C 
ATOM     65  H   UNL     1     -46.445  29.711  23.372  1.00  0.00     0.027 H 
ATOM     66  H   UNL     1     -46.946  28.523  24.601  1.00  0.00     0.027 H 
ATOM     67  H   UNL     1     -49.849  28.393  24.415  1.00  0.00     0.027 H 
ATOM     68  H   UNL     1     -50.293  29.537  23.122  1.00  0.00     0.027 H 
ATOM     69  H   UNL     1     -48.240  27.465  22.762  1.00  0.00     0.027 H 
ATOM     70  H   UNL     1     -48.250  28.980  21.823  1.00  0.00     0.027 H 
ENDBRANCH  50  54
ENDBRANCH  38  39
ENDBRANCH  35  38
ENDBRANCH   5  35
TORSDOF 8
ENDMDL
