MODEL 1
REMARK VINA RESULT:     -10.1      0.000      0.000
REMARK SMILES CNc1ccc2ccc(OCc3cc(C(N)=O)cc(-n4cc(Cl)c5c(N)ncnc54)c3)cc2n1
REMARK SMILES IDX 11 1 10 4 9 5 3 6 4 7 34 8 5 9 33 11 6 12 32 14 7 15 8 17
REMARK SMILES IDX 2 20 1 22 12 26 13 27 31 28 14 29 19 31 18 33 15 35 16 36
REMARK SMILES IDX 17 37 20 40 21 41 30 42 22 43 24 45 29 46 23 47 25 48 28 49
REMARK SMILES IDX 27 50 26 52
REMARK H PARENT 11 2 11 3 4 10 5 13 32 16 7 18 8 19 2 21 1 23 1 24 1 25 13 30
REMARK H PARENT 31 32 18 34 16 38 16 39 21 44 28 51 26 53 26 54
REMARK Flexibility Score: inf
ROOT
ATOM      1  C   UNL     1     -46.342  34.721  26.782  1.00  0.00     0.113 C 
ATOM      2  H   UNL     1     -46.085  34.700  25.715  1.00  0.00     0.076 H 
ATOM      3  H   UNL     1     -45.427  34.455  27.325  1.00  0.00     0.076 H 
ENDROOT
BRANCH   1   4
ATOM      4  O   UNL     1     -47.303  33.712  27.098  1.00  0.00    -0.489 OA
BRANCH   4   5
ATOM      5  C   UNL     1     -47.806  32.953  26.077  1.00  0.00     0.122 A 
ATOM      6  C   UNL     1     -46.536  30.239  22.380  1.00  0.00     0.126 A 
ATOM      7  C   UNL     1     -47.856  29.940  22.074  1.00  0.00    -0.019 A 
ATOM      8  N   UNL     1     -46.196  31.024  23.419  1.00  0.00    -0.231 NA
ATOM      9  C   UNL     1     -48.868  30.486  22.856  1.00  0.00    -0.049 A 
ATOM     10  H   UNL     1     -48.099  29.276  21.253  1.00  0.00     0.066 H 
ATOM     11  C   UNL     1     -47.172  31.552  24.181  1.00  0.00     0.076 A 
ATOM     12  C   UNL     1     -48.537  31.312  23.933  1.00  0.00     0.001 A 
ATOM     13  H   UNL     1     -49.904  30.254  22.627  1.00  0.00     0.063 H 
ATOM     14  C   UNL     1     -46.837  32.367  25.254  1.00  0.00     0.007 A 
ATOM     15  C   UNL     1     -49.518  31.886  24.759  1.00  0.00    -0.049 A 
ATOM     16  H   UNL     1     -45.784  32.552  25.455  1.00  0.00     0.069 H 
ATOM     17  C   UNL     1     -49.151  32.702  25.829  1.00  0.00    -0.019 A 
ATOM     18  H   UNL     1     -50.572  31.690  24.577  1.00  0.00     0.063 H 
ATOM     19  H   UNL     1     -49.941  33.106  26.455  1.00  0.00     0.066 H 
BRANCH   6  20
ATOM     20  N   UNL     1     -45.467  29.716  21.649  1.00  0.00    -0.373 N 
ATOM     21  H   UNL     1     -45.918  29.242  20.867  1.00  0.00     0.161 HD
BRANCH  20  22
ATOM     22  C   UNL     1     -44.622  28.805  22.402  1.00  0.00     0.005 C 
ATOM     23  H   UNL     1     -45.186  28.274  23.176  1.00  0.00     0.045 H 
ATOM     24  H   UNL     1     -43.840  29.381  22.907  1.00  0.00     0.045 H 
ATOM     25  H   UNL     1     -44.130  28.077  21.747  1.00  0.00     0.045 H 
ENDBRANCH  20  22
ENDBRANCH   6  20
ENDBRANCH   4   5
ENDBRANCH   1   4
BRANCH   1  26
ATOM     26  C   UNL     1     -46.743  36.111  27.236  1.00  0.00    -0.008 A 
ATOM     27  C   UNL     1     -48.075  36.437  27.525  1.00  0.00    -0.043 A 
ATOM     28  C   UNL     1     -45.748  37.092  27.409  1.00  0.00    -0.031 A 
ATOM     29  C   UNL     1     -48.411  37.723  27.956  1.00  0.00     0.042 A 
ATOM     30  H   UNL     1     -48.848  35.687  27.380  1.00  0.00     0.064 H 
ATOM     31  C   UNL     1     -46.067  38.397  27.830  1.00  0.00     0.048 A 
ATOM     32  H   UNL     1     -44.726  36.809  27.172  1.00  0.00     0.065 H 
ATOM     33  C   UNL     1     -47.410  38.699  28.094  1.00  0.00    -0.025 A 
ATOM     34  H   UNL     1     -47.721  39.680  28.442  1.00  0.00     0.065 H 
BRANCH  29  35
ATOM     35  C   UNL     1     -49.817  38.108  28.262  1.00  0.00     0.248 C 
ATOM     36  N   UNL     1     -50.639  37.151  28.787  1.00  0.00    -0.366 N 
ATOM     37  O   UNL     1     -50.227  39.249  28.085  1.00  0.00    -0.270 OA
ATOM     38  H   UNL     1     -51.556  37.463  29.081  1.00  0.00     0.159 HD
ATOM     39  H   UNL     1     -50.300  36.281  29.168  1.00  0.00     0.159 HD
ENDBRANCH  29  35
BRANCH  31  40
ATOM     40  N   UNL     1     -45.031  39.383  27.988  1.00  0.00    -0.300 N 
ATOM     41  C   UNL     1     -44.083  39.380  29.000  1.00  0.00     0.030 A 
ATOM     42  C   UNL     1     -44.772  40.502  27.189  1.00  0.00     0.151 A 
ATOM     43  C   UNL     1     -43.261  40.472  28.855  1.00  0.00     0.072 A 
ATOM     44  H   UNL     1     -44.070  38.627  29.772  1.00  0.00     0.084 H 
ATOM     45  C   UNL     1     -43.682  41.192  27.717  1.00  0.00     0.080 A 
ATOM     46  N   UNL     1     -45.433  40.859  26.071  1.00  0.00    -0.218 NA
ATOM     47  Cl  UNL     1     -41.960  40.871  29.876  1.00  0.00    -0.082 Cl
ATOM     48  C   UNL     1     -43.276  42.355  27.046  1.00  0.00     0.137 A 
ATOM     49  C   UNL     1     -44.956  41.977  25.511  1.00  0.00     0.120 A 
ATOM     50  N   UNL     1     -43.927  42.730  25.931  1.00  0.00    -0.219 NA
ATOM     51  H   UNL     1     -45.459  42.314  24.610  1.00  0.00     0.106 H 
BRANCH  48  52
ATOM     52  N   UNL     1     -42.221  43.157  27.450  1.00  0.00    -0.383 N 
ATOM     53  H   UNL     1     -41.516  43.243  26.728  1.00  0.00     0.158 HD
ATOM     54  H   UNL     1     -41.898  43.023  28.399  1.00  0.00     0.158 HD
ENDBRANCH  48  52
ENDBRANCH  31  40
ENDBRANCH   1  26
TORSDOF 8
ENDMDL
MODEL 2
REMARK VINA RESULT:     -10.0      2.265      3.024
REMARK SMILES CNc1ccc2ccc(OCc3cc(C(N)=O)cc(-n4cc(Cl)c5c(N)ncnc54)c3)cc2n1
REMARK SMILES IDX 11 1 10 4 9 5 3 6 4 7 34 8 5 9 33 11 6 12 32 14 7 15 8 17
REMARK SMILES IDX 2 20 1 22 12 26 13 27 31 28 14 29 19 31 18 33 15 35 16 36
REMARK SMILES IDX 17 37 20 40 21 41 30 42 22 43 24 45 29 46 23 47 25 48 28 49
REMARK SMILES IDX 27 50 26 52
REMARK H PARENT 11 2 11 3 4 10 5 13 32 16 7 18 8 19 2 21 1 23 1 24 1 25 13 30
REMARK H PARENT 31 32 18 34 16 38 16 39 21 44 28 51 26 53 26 54
REMARK Flexibility Score: inf
ROOT
ATOM      1  C   UNL     1     -46.941  34.249  26.494  1.00  0.00     0.113 C 
ATOM      2  H   UNL     1     -46.073  34.306  25.825  1.00  0.00     0.076 H 
ATOM      3  H   UNL     1     -46.615  33.680  27.373  1.00  0.00     0.076 H 
ENDROOT
BRANCH   1   4
ATOM      4  O   UNL     1     -47.999  33.495  25.899  1.00  0.00    -0.489 OA
BRANCH   4   5
ATOM      5  C   UNL     1     -47.677  32.353  25.216  1.00  0.00     0.122 A 
ATOM      6  C   UNL     1     -48.974  27.819  24.574  1.00  0.00     0.126 A 
ATOM      7  C   UNL     1     -47.977  27.609  23.632  1.00  0.00    -0.019 A 
ATOM      8  N   UNL     1     -49.156  29.008  25.178  1.00  0.00    -0.231 NA
ATOM      9  C   UNL     1     -47.122  28.658  23.312  1.00  0.00    -0.049 A 
ATOM     10  H   UNL     1     -47.876  26.652  23.135  1.00  0.00     0.066 H 
ATOM     11  C   UNL     1     -48.333  30.027  24.870  1.00  0.00     0.076 A 
ATOM     12  C   UNL     1     -47.287  29.897  23.936  1.00  0.00     0.001 A 
ATOM     13  H   UNL     1     -46.341  28.504  22.573  1.00  0.00     0.063 H 
ATOM     14  C   UNL     1     -48.507  31.259  25.488  1.00  0.00     0.007 A 
ATOM     15  C   UNL     1     -46.455  30.992  23.648  1.00  0.00    -0.049 A 
ATOM     16  H   UNL     1     -49.316  31.368  26.206  1.00  0.00     0.069 H 
ATOM     17  C   UNL     1     -46.653  32.217  24.286  1.00  0.00    -0.019 A 
ATOM     18  H   UNL     1     -45.656  30.896  22.917  1.00  0.00     0.063 H 
ATOM     19  H   UNL     1     -46.002  33.042  24.016  1.00  0.00     0.066 H 
BRANCH   6  20
ATOM     20  N   UNL     1     -49.879  26.818  24.934  1.00  0.00    -0.373 N 
ATOM     21  H   UNL     1     -50.747  27.327  25.101  1.00  0.00     0.161 HD
BRANCH  20  22
ATOM     22  C   UNL     1     -49.482  26.053  26.104  1.00  0.00     0.005 C 
ATOM     23  H   UNL     1     -50.273  25.369  26.428  1.00  0.00     0.045 H 
ATOM     24  H   UNL     1     -49.288  26.742  26.932  1.00  0.00     0.045 H 
ATOM     25  H   UNL     1     -48.564  25.484  25.921  1.00  0.00     0.045 H 
ENDBRANCH  20  22
ENDBRANCH   6  20
ENDBRANCH   4   5
ENDBRANCH   1   4
BRANCH   1  26
ATOM     26  C   UNL     1     -47.365  35.620  26.982  1.00  0.00    -0.008 A 
ATOM     27  C   UNL     1     -48.668  35.870  27.435  1.00  0.00    -0.043 A 
ATOM     28  C   UNL     1     -46.419  36.662  27.016  1.00  0.00    -0.031 A 
ATOM     29  C   UNL     1     -49.026  37.141  27.893  1.00  0.00     0.042 A 
ATOM     30  H   UNL     1     -49.405  35.073  27.398  1.00  0.00     0.064 H 
ATOM     31  C   UNL     1     -46.763  37.952  27.462  1.00  0.00     0.048 A 
ATOM     32  H   UNL     1     -45.420  36.436  26.654  1.00  0.00     0.065 H 
ATOM     33  C   UNL     1     -48.077  38.177  27.892  1.00  0.00    -0.025 A 
ATOM     34  H   UNL     1     -48.401  39.144  28.268  1.00  0.00     0.065 H 
BRANCH  29  35
ATOM     35  C   UNL     1     -50.402  37.446  28.373  1.00  0.00     0.248 C 
ATOM     36  N   UNL     1     -50.703  38.748  28.658  1.00  0.00    -0.366 N 
ATOM     37  O   UNL     1     -51.255  36.574  28.482  1.00  0.00    -0.270 OA
ATOM     38  H   UNL     1     -51.670  38.943  28.883  1.00  0.00     0.159 HD
ATOM     39  H   UNL     1     -50.128  39.524  28.366  1.00  0.00     0.159 HD
ENDBRANCH  29  35
BRANCH  31  40
ATOM     40  N   UNL     1     -45.777  39.001  27.476  1.00  0.00    -0.300 N 
ATOM     41  C   UNL     1     -45.665  39.996  26.518  1.00  0.00     0.030 A 
ATOM     42  C   UNL     1     -44.770  39.228  28.420  1.00  0.00     0.151 A 
ATOM     43  C   UNL     1     -44.610  40.817  26.835  1.00  0.00     0.072 A 
ATOM     44  H   UNL     1     -46.316  40.041  25.658  1.00  0.00     0.084 H 
ATOM     45  C   UNL     1     -44.032  40.346  28.034  1.00  0.00     0.080 A 
ATOM     46  N   UNL     1     -44.546  38.516  29.542  1.00  0.00    -0.218 NA
ATOM     47  Cl  UNL     1     -44.102  42.167  25.934  1.00  0.00    -0.082 Cl
ATOM     48  C   UNL     1     -42.966  40.726  28.863  1.00  0.00     0.137 A 
ATOM     49  C   UNL     1     -43.512  38.972  30.258  1.00  0.00     0.120 A 
ATOM     50  N   UNL     1     -42.725  40.024  29.984  1.00  0.00    -0.219 NA
ATOM     51  H   UNL     1     -43.284  38.428  31.169  1.00  0.00     0.106 H 
BRANCH  48  52
ATOM     52  N   UNL     1     -42.133  41.804  28.612  1.00  0.00    -0.383 N 
ATOM     53  H   UNL     1     -41.685  42.137  29.457  1.00  0.00     0.158 HD
ATOM     54  H   UNL     1     -42.486  42.500  27.969  1.00  0.00     0.158 HD
ENDBRANCH  48  52
ENDBRANCH  31  40
ENDBRANCH   1  26
TORSDOF 8
ENDMDL
MODEL 3
REMARK VINA RESULT:      -9.8      2.422      3.200
REMARK SMILES CNc1ccc2ccc(OCc3cc(C(N)=O)cc(-n4cc(Cl)c5c(N)ncnc54)c3)cc2n1
REMARK SMILES IDX 11 1 10 4 9 5 3 6 4 7 34 8 5 9 33 11 6 12 32 14 7 15 8 17
REMARK SMILES IDX 2 20 1 22 12 26 13 27 31 28 14 29 19 31 18 33 15 35 16 36
REMARK SMILES IDX 17 37 20 40 21 41 30 42 22 43 24 45 29 46 23 47 25 48 28 49
REMARK SMILES IDX 27 50 26 52
REMARK H PARENT 11 2 11 3 4 10 5 13 32 16 7 18 8 19 2 21 1 23 1 24 1 25 13 30
REMARK H PARENT 31 32 18 34 16 38 16 39 21 44 28 51 26 53 26 54
REMARK Flexibility Score: inf
ROOT
ATOM      1  C   UNL     1     -47.402  36.158  26.702  1.00  0.00     0.113 C 
ATOM      2  H   UNL     1     -48.043  35.646  27.430  1.00  0.00     0.076 H 
ATOM      3  H   UNL     1     -48.074  36.599  25.956  1.00  0.00     0.076 H 
ENDROOT
BRANCH   1   4
ATOM      4  O   UNL     1     -46.580  35.224  25.997  1.00  0.00    -0.489 OA
BRANCH   4   5
ATOM      5  C   UNL     1     -47.102  33.994  25.703  1.00  0.00     0.122 A 
ATOM      6  C   UNL     1     -46.451  30.144  22.982  1.00  0.00     0.126 A 
ATOM      7  C   UNL     1     -47.544  29.497  23.539  1.00  0.00    -0.019 A 
ATOM      8  N   UNL     1     -46.067  31.375  23.369  1.00  0.00    -0.231 NA
ATOM      9  C   UNL     1     -48.284  30.149  24.520  1.00  0.00    -0.049 A 
ATOM     10  H   UNL     1     -47.808  28.491  23.234  1.00  0.00     0.066 H 
ATOM     11  C   UNL     1     -46.779  32.009  24.320  1.00  0.00     0.076 A 
ATOM     12  C   UNL     1     -47.909  31.431  24.927  1.00  0.00     0.001 A 
ATOM     13  H   UNL     1     -49.139  29.648  24.964  1.00  0.00     0.063 H 
ATOM     14  C   UNL     1     -46.397  33.281  24.726  1.00  0.00     0.007 A 
ATOM     15  C   UNL     1     -48.618  32.134  25.916  1.00  0.00    -0.049 A 
ATOM     16  H   UNL     1     -45.521  33.731  24.265  1.00  0.00     0.069 H 
ATOM     17  C   UNL     1     -48.212  33.411  26.304  1.00  0.00    -0.019 A 
ATOM     18  H   UNL     1     -49.484  31.683  26.397  1.00  0.00     0.063 H 
ATOM     19  H   UNL     1     -48.774  33.908  27.088  1.00  0.00     0.066 H 
BRANCH   6  20
ATOM     20  N   UNL     1     -45.652  29.547  22.005  1.00  0.00    -0.373 N 
ATOM     21  H   UNL     1     -46.322  29.063  21.407  1.00  0.00     0.161 HD
BRANCH  20  22
ATOM     22  C   UNL     1     -44.655  28.631  22.531  1.00  0.00     0.005 C 
ATOM     23  H   UNL     1     -44.793  28.453  23.602  1.00  0.00     0.045 H 
ATOM     24  H   UNL     1     -43.662  29.071  22.399  1.00  0.00     0.045 H 
ATOM     25  H   UNL     1     -44.668  27.672  21.999  1.00  0.00     0.045 H 
ENDBRANCH  20  22
ENDBRANCH   6  20
ENDBRANCH   4   5
ENDBRANCH   1   4
BRANCH   1  26
ATOM     26  C   UNL     1     -46.628  37.297  27.336  1.00  0.00    -0.008 A 
ATOM     27  C   UNL     1     -46.073  37.186  28.618  1.00  0.00    -0.043 A 
ATOM     28  C   UNL     1     -46.429  38.485  26.606  1.00  0.00    -0.031 A 
ATOM     29  C   UNL     1     -45.352  38.249  29.171  1.00  0.00     0.042 A 
ATOM     30  H   UNL     1     -46.236  36.278  29.190  1.00  0.00     0.064 H 
ATOM     31  C   UNL     1     -45.717  39.570  27.150  1.00  0.00     0.048 A 
ATOM     32  H   UNL     1     -46.876  38.539  25.618  1.00  0.00     0.065 H 
ATOM     33  C   UNL     1     -45.189  39.438  28.441  1.00  0.00    -0.025 A 
ATOM     34  H   UNL     1     -44.612  40.230  28.910  1.00  0.00     0.065 H 
BRANCH  29  35
ATOM     35  C   UNL     1     -44.757  38.171  30.534  1.00  0.00     0.248 C 
ATOM     36  N   UNL     1     -45.606  38.002  31.591  1.00  0.00    -0.366 N 
ATOM     37  O   UNL     1     -43.546  38.224  30.713  1.00  0.00    -0.270 OA
ATOM     38  H   UNL     1     -45.172  37.850  32.492  1.00  0.00     0.159 HD
ATOM     39  H   UNL     1     -46.569  37.719  31.486  1.00  0.00     0.159 HD
ENDBRANCH  29  35
BRANCH  31  40
ATOM     40  N   UNL     1     -45.537  40.776  26.385  1.00  0.00    -0.300 N 
ATOM     41  C   UNL     1     -44.432  41.057  25.598  1.00  0.00     0.030 A 
ATOM     42  C   UNL     1     -46.403  41.870  26.279  1.00  0.00     0.151 A 
ATOM     43  C   UNL     1     -44.585  42.297  25.025  1.00  0.00     0.072 A 
ATOM     44  H   UNL     1     -43.596  40.379  25.518  1.00  0.00     0.084 H 
ATOM     45  C   UNL     1     -45.824  42.825  25.445  1.00  0.00     0.080 A 
ATOM     46  N   UNL     1     -47.615  41.992  26.853  1.00  0.00    -0.218 NA
ATOM     47  Cl  UNL     1     -43.468  43.050  23.985  1.00  0.00    -0.082 Cl
ATOM     48  C   UNL     1     -46.551  44.004  25.222  1.00  0.00     0.137 A 
ATOM     49  C   UNL     1     -48.220  43.152  26.567  1.00  0.00     0.120 A 
ATOM     50  N   UNL     1     -47.760  44.147  25.792  1.00  0.00    -0.219 NA
ATOM     51  H   UNL     1     -49.198  43.304  27.012  1.00  0.00     0.106 H 
BRANCH  48  52
ATOM     52  N   UNL     1     -46.109  45.051  24.430  1.00  0.00    -0.383 N 
ATOM     53  H   UNL     1     -45.100  45.060  24.348  1.00  0.00     0.158 HD
ATOM     54  H   UNL     1     -46.570  45.941  24.569  1.00  0.00     0.158 HD
ENDBRANCH  48  52
ENDBRANCH  31  40
ENDBRANCH   1  26
TORSDOF 8
ENDMDL
MODEL 4
REMARK VINA RESULT:      -9.7      1.465      2.019
REMARK SMILES CNc1ccc2ccc(OCc3cc(C(N)=O)cc(-n4cc(Cl)c5c(N)ncnc54)c3)cc2n1
REMARK SMILES IDX 11 1 10 4 9 5 3 6 4 7 34 8 5 9 33 11 6 12 32 14 7 15 8 17
REMARK SMILES IDX 2 20 1 22 12 26 13 27 31 28 14 29 19 31 18 33 15 35 16 36
REMARK SMILES IDX 17 37 20 40 21 41 30 42 22 43 24 45 29 46 23 47 25 48 28 49
REMARK SMILES IDX 27 50 26 52
REMARK H PARENT 11 2 11 3 4 10 5 13 32 16 7 18 8 19 2 21 1 23 1 24 1 25 13 30
REMARK H PARENT 31 32 18 34 16 38 16 39 21 44 28 51 26 53 26 54
REMARK Flexibility Score: inf
ROOT
ATOM      1  C   UNL     1     -46.447  35.024  28.185  1.00  0.00     0.113 C 
ATOM      2  H   UNL     1     -45.714  34.937  28.997  1.00  0.00     0.076 H 
ATOM      3  H   UNL     1     -47.312  34.421  28.485  1.00  0.00     0.076 H 
ENDROOT
BRANCH   1   4
ATOM      4  O   UNL     1     -45.949  34.439  26.980  1.00  0.00    -0.489 OA
BRANCH   4   5
ATOM      5  C   UNL     1     -46.792  33.648  26.247  1.00  0.00     0.122 A 
ATOM      6  C   UNL     1     -46.901  30.494  22.685  1.00  0.00     0.126 A 
ATOM      7  C   UNL     1     -48.270  30.311  22.814  1.00  0.00    -0.019 A 
ATOM      8  N   UNL     1     -46.206  31.329  23.479  1.00  0.00    -0.231 NA
ATOM      9  C   UNL     1     -48.955  31.028  23.788  1.00  0.00    -0.049 A 
ATOM     10  H   UNL     1     -48.798  29.605  22.184  1.00  0.00     0.066 H 
ATOM     11  C   UNL     1     -46.865  32.024  24.426  1.00  0.00     0.076 A 
ATOM     12  C   UNL     1     -48.254  31.909  24.617  1.00  0.00     0.001 A 
ATOM     13  H   UNL     1     -50.026  30.888  23.900  1.00  0.00     0.063 H 
ATOM     14  C   UNL     1     -46.162  32.892  25.251  1.00  0.00     0.007 A 
ATOM     15  C   UNL     1     -48.895  32.655  25.619  1.00  0.00    -0.049 A 
ATOM     16  H   UNL     1     -45.087  32.981  25.113  1.00  0.00     0.069 H 
ATOM     17  C   UNL     1     -48.164  33.521  26.433  1.00  0.00    -0.019 A 
ATOM     18  H   UNL     1     -49.967  32.557  25.777  1.00  0.00     0.063 H 
ATOM     19  H   UNL     1     -48.695  34.061  27.210  1.00  0.00     0.066 H 
BRANCH   6  20
ATOM     20  N   UNL     1     -46.144  29.797  21.740  1.00  0.00    -0.373 N 
ATOM     21  H   UNL     1     -46.804  29.123  21.351  1.00  0.00     0.161 HD
BRANCH  20  22
ATOM     22  C   UNL     1     -44.974  29.134  22.290  1.00  0.00     0.005 C 
ATOM     23  H   UNL     1     -44.112  29.806  22.340  1.00  0.00     0.045 H 
ATOM     24  H   UNL     1     -44.698  28.299  21.637  1.00  0.00     0.045 H 
ATOM     25  H   UNL     1     -45.174  28.725  23.287  1.00  0.00     0.045 H 
ENDBRANCH  20  22
ENDBRANCH   6  20
ENDBRANCH   4   5
ENDBRANCH   1   4
BRANCH   1  26
ATOM     26  C   UNL     1     -46.932  36.451  28.017  1.00  0.00    -0.008 A 
ATOM     27  C   UNL     1     -48.270  36.804  28.242  1.00  0.00    -0.043 A 
ATOM     28  C   UNL     1     -46.011  37.455  27.664  1.00  0.00    -0.031 A 
ATOM     29  C   UNL     1     -48.685  38.131  28.094  1.00  0.00     0.042 A 
ATOM     30  H   UNL     1     -48.987  36.031  28.501  1.00  0.00     0.064 H 
ATOM     31  C   UNL     1     -46.411  38.794  27.498  1.00  0.00     0.048 A 
ATOM     32  H   UNL     1     -44.983  37.146  27.493  1.00  0.00     0.065 H 
ATOM     33  C   UNL     1     -47.758  39.115  27.711  1.00  0.00    -0.025 A 
ATOM     34  H   UNL     1     -48.128  40.133  27.620  1.00  0.00     0.065 H 
BRANCH  29  35
ATOM     35  C   UNL     1     -50.100  38.542  28.314  1.00  0.00     0.248 C 
ATOM     36  N   UNL     1     -50.326  39.765  28.881  1.00  0.00    -0.366 N 
ATOM     37  O   UNL     1     -51.038  37.832  27.974  1.00  0.00    -0.270 OA
ATOM     38  H   UNL     1     -51.292  40.063  28.926  1.00  0.00     0.159 HD
ATOM     39  H   UNL     1     -49.615  40.477  28.961  1.00  0.00     0.159 HD
ENDBRANCH  29  35
BRANCH  31  40
ATOM     40  N   UNL     1     -45.449  39.798  27.126  1.00  0.00    -0.300 N 
ATOM     41  C   UNL     1     -45.495  40.544  25.959  1.00  0.00     0.030 A 
ATOM     42  C   UNL     1     -44.316  40.214  27.833  1.00  0.00     0.151 A 
ATOM     43  C   UNL     1     -44.415  41.394  25.921  1.00  0.00     0.072 A 
ATOM     44  H   UNL     1     -46.267  40.406  25.218  1.00  0.00     0.084 H 
ATOM     45  C   UNL     1     -43.659  41.198  27.096  1.00  0.00     0.080 A 
ATOM     46  N   UNL     1     -43.918  39.773  29.043  1.00  0.00    -0.218 NA
ATOM     47  Cl  UNL     1     -44.066  42.492  24.669  1.00  0.00    -0.082 Cl
ATOM     48  C   UNL     1     -42.488  41.736  27.650  1.00  0.00     0.137 A 
ATOM     49  C   UNL     1     -42.795  40.359  29.474  1.00  0.00     0.120 A 
ATOM     50  N   UNL     1     -42.073  41.304  28.853  1.00  0.00    -0.219 NA
ATOM     51  H   UNL     1     -42.427  40.034  30.442  1.00  0.00     0.106 H 
BRANCH  48  52
ATOM     52  N   UNL     1     -41.716  42.711  27.038  1.00  0.00    -0.383 N 
ATOM     53  H   UNL     1     -42.286  43.381  26.537  1.00  0.00     0.158 HD
ATOM     54  H   UNL     1     -40.871  42.390  26.584  1.00  0.00     0.158 HD
ENDBRANCH  48  52
ENDBRANCH  31  40
ENDBRANCH   1  26
TORSDOF 8
ENDMDL
MODEL 5
REMARK VINA RESULT:      -9.6      2.341      3.008
REMARK SMILES CNc1ccc2ccc(OCc3cc(C(N)=O)cc(-n4cc(Cl)c5c(N)ncnc54)c3)cc2n1
REMARK SMILES IDX 11 1 10 4 9 5 3 6 4 7 34 8 5 9 33 11 6 12 32 14 7 15 8 17
REMARK SMILES IDX 2 20 1 22 12 26 13 27 31 28 14 29 19 31 18 33 15 35 16 36
REMARK SMILES IDX 17 37 20 40 21 41 30 42 22 43 24 45 29 46 23 47 25 48 28 49
REMARK SMILES IDX 27 50 26 52
REMARK H PARENT 11 2 11 3 4 10 5 13 32 16 7 18 8 19 2 21 1 23 1 24 1 25 13 30
REMARK H PARENT 31 32 18 34 16 38 16 39 21 44 28 51 26 53 26 54
REMARK Flexibility Score: inf
ROOT
ATOM      1  C   UNL     1     -47.104  36.311  26.333  1.00  0.00     0.113 C 
ATOM      2  H   UNL     1     -48.182  36.246  26.530  1.00  0.00     0.076 H 
ATOM      3  H   UNL     1     -47.000  36.592  25.278  1.00  0.00     0.076 H 
ENDROOT
BRANCH   1   4
ATOM      4  O   UNL     1     -46.480  35.033  26.470  1.00  0.00    -0.489 OA
BRANCH   4   5
ATOM      5  C   UNL     1     -47.108  33.943  25.931  1.00  0.00     0.122 A 
ATOM      6  C   UNL     1     -46.542  30.389  22.817  1.00  0.00     0.126 A 
ATOM      7  C   UNL     1     -47.791  29.860  23.108  1.00  0.00    -0.019 A 
ATOM      8  N   UNL     1     -46.065  31.489  23.427  1.00  0.00    -0.231 NA
ATOM      9  C   UNL     1     -48.589  30.499  24.051  1.00  0.00    -0.049 A 
ATOM     10  H   UNL     1     -48.135  28.952  22.629  1.00  0.00     0.066 H 
ATOM     11  C   UNL     1     -46.832  32.110  24.343  1.00  0.00     0.076 A 
ATOM     12  C   UNL     1     -48.116  31.649  24.688  1.00  0.00     0.001 A 
ATOM     13  H   UNL     1     -49.566  30.090  24.289  1.00  0.00     0.063 H 
ATOM     14  C   UNL     1     -46.354  33.249  24.977  1.00  0.00     0.007 A 
ATOM     15  C   UNL     1     -48.878  32.332  25.651  1.00  0.00    -0.049 A 
ATOM     16  H   UNL     1     -45.360  33.607  24.719  1.00  0.00     0.069 H 
ATOM     17  C   UNL     1     -48.372  33.475  26.272  1.00  0.00    -0.019 A 
ATOM     18  H   UNL     1     -49.865  31.969  25.929  1.00  0.00     0.063 H 
ATOM     19  H   UNL     1     -48.984  33.958  27.026  1.00  0.00     0.066 H 
BRANCH   6  20
ATOM     20  N   UNL     1     -45.680  29.793  21.894  1.00  0.00    -0.373 N 
ATOM     21  H   UNL     1     -46.311  29.344  21.229  1.00  0.00     0.161 HD
BRANCH  20  22
ATOM     22  C   UNL     1     -44.756  28.836  22.476  1.00  0.00     0.005 C 
ATOM     23  H   UNL     1     -44.396  28.116  21.734  1.00  0.00     0.045 H 
ATOM     24  H   UNL     1     -45.275  28.268  23.255  1.00  0.00     0.045 H 
ATOM     25  H   UNL     1     -43.899  29.335  22.942  1.00  0.00     0.045 H 
ENDBRANCH  20  22
ENDBRANCH   6  20
ENDBRANCH   4   5
ENDBRANCH   1   4
BRANCH   1  26
ATOM     26  C   UNL     1     -46.447  37.404  27.153  1.00  0.00    -0.008 A 
ATOM     27  C   UNL     1     -46.019  37.182  28.468  1.00  0.00    -0.043 A 
ATOM     28  C   UNL     1     -46.226  38.665  26.567  1.00  0.00    -0.031 A 
ATOM     29  C   UNL     1     -45.403  38.205  29.195  1.00  0.00     0.042 A 
ATOM     30  H   UNL     1     -46.200  36.215  28.929  1.00  0.00     0.064 H 
ATOM     31  C   UNL     1     -45.619  39.713  27.285  1.00  0.00     0.048 A 
ATOM     32  H   UNL     1     -46.573  38.806  25.547  1.00  0.00     0.065 H 
ATOM     33  C   UNL     1     -45.218  39.467  28.605  1.00  0.00    -0.025 A 
ATOM     34  H   UNL     1     -44.724  40.225  29.207  1.00  0.00     0.065 H 
BRANCH  29  35
ATOM     35  C   UNL     1     -44.945  38.009  30.598  1.00  0.00     0.248 C 
ATOM     36  N   UNL     1     -45.895  37.779  31.552  1.00  0.00    -0.366 N 
ATOM     37  O   UNL     1     -43.756  38.019  30.895  1.00  0.00    -0.270 OA
ATOM     38  H   UNL     1     -45.553  37.547  32.476  1.00  0.00     0.159 HD
ATOM     39  H   UNL     1     -46.848  37.528  31.333  1.00  0.00     0.159 HD
ENDBRANCH  29  35
BRANCH  31  40
ATOM     40  N   UNL     1     -45.415  40.995  26.664  1.00  0.00    -0.300 N 
ATOM     41  C   UNL     1     -46.422  41.794  26.147  1.00  0.00     0.030 A 
ATOM     42  C   UNL     1     -44.209  41.676  26.462  1.00  0.00     0.151 A 
ATOM     43  C   UNL     1     -45.871  42.936  25.619  1.00  0.00     0.072 A 
ATOM     44  H   UNL     1     -47.458  41.490  26.157  1.00  0.00     0.084 H 
ATOM     45  C   UNL     1     -44.474  42.878  25.808  1.00  0.00     0.080 A 
ATOM     46  N   UNL     1     -42.985  41.272  26.852  1.00  0.00    -0.218 NA
ATOM     47  Cl  UNL     1     -46.735  44.198  24.873  1.00  0.00    -0.082 Cl
ATOM     48  C   UNL     1     -43.376  43.700  25.514  1.00  0.00     0.137 A 
ATOM     49  C   UNL     1     -42.016  42.136  26.525  1.00  0.00     0.120 A 
ATOM     50  N   UNL     1     -42.145  43.311  25.890  1.00  0.00    -0.219 NA
ATOM     51  H   UNL     1     -41.007  41.854  26.810  1.00  0.00     0.106 H 
BRANCH  48  52
ATOM     52  N   UNL     1     -43.470  44.918  24.859  1.00  0.00    -0.383 N 
ATOM     53  H   UNL     1     -42.615  45.147  24.367  1.00  0.00     0.158 HD
ATOM     54  H   UNL     1     -43.927  45.663  25.368  1.00  0.00     0.158 HD
ENDBRANCH  48  52
ENDBRANCH  31  40
ENDBRANCH   1  26
TORSDOF 8
ENDMDL
MODEL 6
REMARK VINA RESULT:      -9.4      1.994      2.717
REMARK SMILES CNc1ccc2ccc(OCc3cc(C(N)=O)cc(-n4cc(Cl)c5c(N)ncnc54)c3)cc2n1
REMARK SMILES IDX 11 1 10 4 9 5 3 6 4 7 34 8 5 9 33 11 6 12 32 14 7 15 8 17
REMARK SMILES IDX 2 20 1 22 12 26 13 27 31 28 14 29 19 31 18 33 15 35 16 36
REMARK SMILES IDX 17 37 20 40 21 41 30 42 22 43 24 45 29 46 23 47 25 48 28 49
REMARK SMILES IDX 27 50 26 52
REMARK H PARENT 11 2 11 3 4 10 5 13 32 16 7 18 8 19 2 21 1 23 1 24 1 25 13 30
REMARK H PARENT 31 32 18 34 16 38 16 39 21 44 28 51 26 53 26 54
REMARK Flexibility Score: inf
ROOT
ATOM      1  C   UNL     1     -47.677  34.061  26.164  1.00  0.00     0.113 C 
ATOM      2  H   UNL     1     -47.479  34.123  25.087  1.00  0.00     0.076 H 
ATOM      3  H   UNL     1     -46.743  33.725  26.630  1.00  0.00     0.076 H 
ENDROOT
BRANCH   1   4
ATOM      4  O   UNL     1     -48.651  33.055  26.449  1.00  0.00    -0.489 OA
BRANCH   4   5
ATOM      5  C   UNL     1     -48.622  31.899  25.718  1.00  0.00     0.122 A 
ATOM      6  C   UNL     1     -48.634  30.220  21.264  1.00  0.00     0.126 A 
ATOM      7  C   UNL     1     -48.535  28.907  21.700  1.00  0.00    -0.019 A 
ATOM      8  N   UNL     1     -48.669  31.262  22.116  1.00  0.00    -0.231 NA
ATOM      9  C   UNL     1     -48.488  28.653  23.066  1.00  0.00    -0.049 A 
ATOM     10  H   UNL     1     -48.472  28.090  20.990  1.00  0.00     0.066 H 
ATOM     11  C   UNL     1     -48.621  31.021  23.440  1.00  0.00     0.076 A 
ATOM     12  C   UNL     1     -48.534  29.719  23.967  1.00  0.00     0.001 A 
ATOM     13  H   UNL     1     -48.405  27.628  23.416  1.00  0.00     0.063 H 
ATOM     14  C   UNL     1     -48.659  32.086  24.331  1.00  0.00     0.007 A 
ATOM     15  C   UNL     1     -48.485  29.520  25.357  1.00  0.00    -0.049 A 
ATOM     16  H   UNL     1     -48.721  33.095  23.930  1.00  0.00     0.069 H 
ATOM     17  C   UNL     1     -48.527  30.609  26.229  1.00  0.00    -0.019 A 
ATOM     18  H   UNL     1     -48.404  28.515  25.766  1.00  0.00     0.063 H 
ATOM     19  H   UNL     1     -48.464  30.412  27.294  1.00  0.00     0.066 H 
BRANCH   6  20
ATOM     20  N   UNL     1     -48.671  30.554  19.909  1.00  0.00    -0.373 N 
ATOM     21  H   UNL     1     -48.502  29.665  19.437  1.00  0.00     0.161 HD
BRANCH  20  22
ATOM     22  C   UNL     1     -47.693  31.554  19.517  1.00  0.00     0.005 C 
ATOM     23  H   UNL     1     -47.396  31.442  18.469  1.00  0.00     0.045 H 
ATOM     24  H   UNL     1     -46.792  31.429  20.126  1.00  0.00     0.045 H 
ATOM     25  H   UNL     1     -48.068  32.571  19.681  1.00  0.00     0.045 H 
ENDBRANCH  20  22
ENDBRANCH   6  20
ENDBRANCH   4   5
ENDBRANCH   1   4
BRANCH   1  26
ATOM     26  C   UNL     1     -48.008  35.418  26.754  1.00  0.00    -0.008 A 
ATOM     27  C   UNL     1     -49.284  35.713  27.254  1.00  0.00    -0.043 A 
ATOM     28  C   UNL     1     -47.000  36.397  26.838  1.00  0.00    -0.031 A 
ATOM     29  C   UNL     1     -49.555  36.968  27.806  1.00  0.00     0.042 A 
ATOM     30  H   UNL     1     -50.069  34.965  27.179  1.00  0.00     0.064 H 
ATOM     31  C   UNL     1     -47.255  37.671  27.378  1.00  0.00     0.048 A 
ATOM     32  H   UNL     1     -46.023  36.138  26.438  1.00  0.00     0.065 H 
ATOM     33  C   UNL     1     -48.545  37.944  27.854  1.00  0.00    -0.025 A 
ATOM     34  H   UNL     1     -48.803  38.900  28.301  1.00  0.00     0.065 H 
BRANCH  29  35
ATOM     35  C   UNL     1     -50.901  37.320  28.337  1.00  0.00     0.248 C 
ATOM     36  N   UNL     1     -51.292  36.745  29.513  1.00  0.00    -0.366 N 
ATOM     37  O   UNL     1     -51.630  38.122  27.765  1.00  0.00    -0.270 OA
ATOM     38  H   UNL     1     -52.164  37.078  29.904  1.00  0.00     0.159 HD
ATOM     39  H   UNL     1     -50.653  36.274  30.136  1.00  0.00     0.159 HD
ENDBRANCH  29  35
BRANCH  31  40
ATOM     40  N   UNL     1     -46.208  38.656  27.441  1.00  0.00    -0.300 N 
ATOM     41  C   UNL     1     -45.991  39.644  26.493  1.00  0.00     0.030 A 
ATOM     42  C   UNL     1     -45.231  38.817  28.430  1.00  0.00     0.151 A 
ATOM     43  C   UNL     1     -44.901  40.396  26.861  1.00  0.00     0.072 A 
ATOM     44  H   UNL     1     -46.599  39.732  25.606  1.00  0.00     0.084 H 
ATOM     45  C   UNL     1     -44.408  39.887  28.082  1.00  0.00     0.080 A 
ATOM     46  N   UNL     1     -45.103  38.091  29.557  1.00  0.00    -0.218 NA
ATOM     47  Cl  UNL     1     -44.270  41.714  25.990  1.00  0.00    -0.082 Cl
ATOM     48  C   UNL     1     -43.359  40.198  28.960  1.00  0.00     0.137 A 
ATOM     49  C   UNL     1     -44.075  38.480  30.321  1.00  0.00     0.120 A 
ATOM     50  N   UNL     1     -43.212  39.481  30.087  1.00  0.00    -0.219 NA
ATOM     51  H   UNL     1     -43.922  37.921  31.239  1.00  0.00     0.106 H 
BRANCH  48  52
ATOM     52  N   UNL     1     -42.450  41.222  28.751  1.00  0.00    -0.383 N 
ATOM     53  H   UNL     1     -42.786  42.104  29.119  1.00  0.00     0.158 HD
ATOM     54  H   UNL     1     -41.998  41.240  27.846  1.00  0.00     0.158 HD
ENDBRANCH  48  52
ENDBRANCH  31  40
ENDBRANCH   1  26
TORSDOF 8
ENDMDL
MODEL 7
REMARK VINA RESULT:      -9.3      3.156      5.078
REMARK SMILES CNc1ccc2ccc(OCc3cc(C(N)=O)cc(-n4cc(Cl)c5c(N)ncnc54)c3)cc2n1
REMARK SMILES IDX 11 1 10 4 9 5 3 6 4 7 34 8 5 9 33 11 6 12 32 14 7 15 8 17
REMARK SMILES IDX 2 20 1 22 12 26 13 27 31 28 14 29 19 31 18 33 15 35 16 36
REMARK SMILES IDX 17 37 20 40 21 41 30 42 22 43 24 45 29 46 23 47 25 48 28 49
REMARK SMILES IDX 27 50 26 52
REMARK H PARENT 11 2 11 3 4 10 5 13 32 16 7 18 8 19 2 21 1 23 1 24 1 25 13 30
REMARK H PARENT 31 32 18 34 16 38 16 39 21 44 28 51 26 53 26 54
REMARK Flexibility Score: inf
ROOT
ATOM      1  C   UNL     1     -46.227  38.365  27.925  1.00  0.00     0.113 C 
ATOM      2  H   UNL     1     -46.527  38.211  28.970  1.00  0.00     0.076 H 
ATOM      3  H   UNL     1     -47.142  38.615  27.376  1.00  0.00     0.076 H 
ENDROOT
BRANCH   1   4
ATOM      4  O   UNL     1     -45.733  37.153  27.350  1.00  0.00    -0.489 OA
BRANCH   4   5
ATOM      5  C   UNL     1     -46.633  36.173  27.032  1.00  0.00     0.122 A 
ATOM      6  C   UNL     1     -47.042  31.946  24.882  1.00  0.00     0.126 A 
ATOM      7  C   UNL     1     -48.392  31.858  25.190  1.00  0.00    -0.019 A 
ATOM      8  N   UNL     1     -46.284  32.995  25.255  1.00  0.00    -0.231 NA
ATOM      9  C   UNL     1     -48.991  32.897  25.894  1.00  0.00    -0.049 A 
ATOM     10  H   UNL     1     -48.969  30.985  24.909  1.00  0.00     0.066 H 
ATOM     11  C   UNL     1     -46.859  34.002  25.939  1.00  0.00     0.076 A 
ATOM     12  C   UNL     1     -48.224  33.999  26.281  1.00  0.00     0.001 A 
ATOM     13  H   UNL     1     -50.046  32.834  26.143  1.00  0.00     0.063 H 
ATOM     14  C   UNL     1     -46.091  35.091  26.327  1.00  0.00     0.007 A 
ATOM     15  C   UNL     1     -48.777  35.074  26.996  1.00  0.00    -0.049 A 
ATOM     16  H   UNL     1     -45.034  35.097  26.071  1.00  0.00     0.069 H 
ATOM     17  C   UNL     1     -47.981  36.157  27.372  1.00  0.00    -0.019 A 
ATOM     18  H   UNL     1     -49.829  35.067  27.274  1.00  0.00     0.063 H 
ATOM     19  H   UNL     1     -48.443  36.955  27.944  1.00  0.00     0.066 H 
BRANCH   6  20
ATOM     20  N   UNL     1     -46.369  30.936  24.192  1.00  0.00    -0.373 N 
ATOM     21  H   UNL     1     -45.665  31.440  23.652  1.00  0.00     0.161 HD
BRANCH  20  22
ATOM     22  C   UNL     1     -47.222  30.135  23.331  1.00  0.00     0.005 C 
ATOM     23  H   UNL     1     -47.197  29.076  23.608  1.00  0.00     0.045 H 
ATOM     24  H   UNL     1     -46.860  30.211  22.301  1.00  0.00     0.045 H 
ATOM     25  H   UNL     1     -48.259  30.490  23.348  1.00  0.00     0.045 H 
ENDBRANCH  20  22
ENDBRANCH   6  20
ENDBRANCH   4   5
ENDBRANCH   1   4
BRANCH   1  26
ATOM     26  C   UNL     1     -45.282  39.542  27.779  1.00  0.00    -0.008 A 
ATOM     27  C   UNL     1     -44.119  39.653  28.553  1.00  0.00    -0.043 A 
ATOM     28  C   UNL     1     -45.558  40.531  26.816  1.00  0.00    -0.031 A 
ATOM     29  C   UNL     1     -43.259  40.742  28.385  1.00  0.00     0.042 A 
ATOM     30  H   UNL     1     -43.909  38.899  29.307  1.00  0.00     0.064 H 
ATOM     31  C   UNL     1     -44.712  41.642  26.640  1.00  0.00     0.048 A 
ATOM     32  H   UNL     1     -46.470  40.417  26.236  1.00  0.00     0.065 H 
ATOM     33  C   UNL     1     -43.566  41.736  27.440  1.00  0.00    -0.025 A 
ATOM     34  H   UNL     1     -42.861  42.556  27.340  1.00  0.00     0.065 H 
BRANCH  29  35
ATOM     35  C   UNL     1     -42.020  40.899  29.196  1.00  0.00     0.248 C 
ATOM     36  N   UNL     1     -41.893  40.131  30.319  1.00  0.00    -0.366 N 
ATOM     37  O   UNL     1     -41.123  41.663  28.862  1.00  0.00    -0.270 OA
ATOM     38  H   UNL     1     -41.001  40.181  30.794  1.00  0.00     0.159 HD
ATOM     39  H   UNL     1     -42.477  39.330  30.509  1.00  0.00     0.159 HD
ENDBRANCH  29  35
BRANCH  31  40
ATOM     40  N   UNL     1     -45.025  42.643  25.654  1.00  0.00    -0.300 N 
ATOM     41  C   UNL     1     -44.408  42.758  24.419  1.00  0.00     0.030 A 
ATOM     42  C   UNL     1     -45.976  43.666  25.732  1.00  0.00     0.151 A 
ATOM     43  C   UNL     1     -44.939  43.829  23.743  1.00  0.00     0.072 A 
ATOM     44  H   UNL     1     -43.613  42.097  24.110  1.00  0.00     0.084 H 
ATOM     45  C   UNL     1     -45.931  44.415  24.558  1.00  0.00     0.080 A 
ATOM     46  N   UNL     1     -46.828  43.893  26.751  1.00  0.00    -0.218 NA
ATOM     47  Cl  UNL     1     -44.477  44.346  22.189  1.00  0.00    -0.082 Cl
ATOM     48  C   UNL     1     -46.818  45.497  24.456  1.00  0.00     0.137 A 
ATOM     49  C   UNL     1     -47.631  44.943  26.542  1.00  0.00     0.120 A 
ATOM     50  N   UNL     1     -47.672  45.743  25.464  1.00  0.00    -0.219 NA
ATOM     51  H   UNL     1     -48.333  45.175  27.337  1.00  0.00     0.106 H 
BRANCH  48  52
ATOM     52  N   UNL     1     -46.888  46.343  23.361  1.00  0.00    -0.383 N 
ATOM     53  H   UNL     1     -46.479  47.248  23.559  1.00  0.00     0.158 HD
ATOM     54  H   UNL     1     -47.757  46.331  22.843  1.00  0.00     0.158 HD
ENDBRANCH  48  52
ENDBRANCH  31  40
ENDBRANCH   1  26
TORSDOF 8
ENDMDL
