MODEL 1
REMARK VINA RESULT:     -10.3      0.000      0.000
REMARK SMILES CNc1ccc2ccc(OCc3cncc(-n4cc(C5CCCC5)c5c(N)ncnc54)n3)cc2n1
REMARK SMILES IDX 11 1 10 4 9 5 3 6 4 7 35 8 5 9 34 11 6 12 33 14 7 15 8 17
REMARK SMILES IDX 2 20 1 22 12 26 13 27 32 28 14 29 16 31 15 32 17 34 18 35
REMARK SMILES IDX 31 36 19 37 25 39 30 40 26 41 29 42 28 43 20 45 21 46 24 47
REMARK SMILES IDX 22 49 23 52 27 59
REMARK H PARENT 11 2 11 3 4 10 5 13 33 16 7 18 8 19 2 21 1 23 1 24 1 25 13 30
REMARK H PARENT 15 33 18 38 29 44 20 48 21 50 21 51 24 53 24 54 22 55 22 56
REMARK H PARENT 23 57 23 58 27 60 27 61
REMARK Flexibility Score: inf
ROOT
ATOM      1  C   UNL     1     -46.597  36.660  26.638  1.00  0.00     0.132 C 
ATOM      2  H   UNL     1     -47.410  36.971  25.973  1.00  0.00     0.078 H 
ATOM      3  H   UNL     1     -45.627  36.913  26.193  1.00  0.00     0.078 H 
ENDROOT
BRANCH   1   4
ATOM      4  O   UNL     1     -46.742  37.300  27.910  1.00  0.00    -0.487 OA
BRANCH   4   5
ATOM      5  C   UNL     1     -45.710  38.097  28.327  1.00  0.00     0.122 A 
ATOM      6  C   UNL     1     -42.669  41.731  27.963  1.00  0.00     0.126 A 
ATOM      7  C   UNL     1     -42.064  41.422  29.173  1.00  0.00    -0.019 A 
ATOM      8  N   UNL     1     -43.698  41.017  27.468  1.00  0.00    -0.231 NA
ATOM      9  C   UNL     1     -42.522  40.324  29.892  1.00  0.00    -0.049 A 
ATOM     10  H   UNL     1     -41.262  42.036  29.564  1.00  0.00     0.066 H 
ATOM     11  C   UNL     1     -44.148  39.955  28.161  1.00  0.00     0.076 A 
ATOM     12  C   UNL     1     -43.581  39.564  29.391  1.00  0.00     0.001 A 
ATOM     13  H   UNL     1     -42.056  40.077  30.842  1.00  0.00     0.063 H 
ATOM     14  C   UNL     1     -45.206  39.212  27.653  1.00  0.00     0.007 A 
ATOM     15  C   UNL     1     -44.082  38.448  30.077  1.00  0.00    -0.049 A 
ATOM     16  H   UNL     1     -45.624  39.541  26.707  1.00  0.00     0.069 H 
ATOM     17  C   UNL     1     -45.142  37.720  29.542  1.00  0.00    -0.019 A 
ATOM     18  H   UNL     1     -43.653  38.141  31.028  1.00  0.00     0.063 H 
ATOM     19  H   UNL     1     -45.530  36.856  30.078  1.00  0.00     0.066 H 
BRANCH   6  20
ATOM     20  N   UNL     1     -42.275  42.826  27.193  1.00  0.00    -0.373 N 
ATOM     21  H   UNL     1     -41.750  43.407  27.847  1.00  0.00     0.161 HD
BRANCH  20  22
ATOM     22  C   UNL     1     -43.379  43.564  26.601  1.00  0.00     0.005 C 
ATOM     23  H   UNL     1     -44.268  42.934  26.485  1.00  0.00     0.045 H 
ATOM     24  H   UNL     1     -43.107  43.990  25.631  1.00  0.00     0.045 H 
ATOM     25  H   UNL     1     -43.645  44.397  27.260  1.00  0.00     0.045 H 
ENDBRANCH  20  22
ENDBRANCH   6  20
ENDBRANCH   4   5
ENDBRANCH   1   4
BRANCH   1  26
ATOM     26  C   UNL     1     -46.651  35.164  26.807  1.00  0.00     0.099 A 
ATOM     27  C   UNL     1     -46.065  34.538  27.900  1.00  0.00     0.052 A 
ATOM     28  N   UNL     1     -47.242  34.437  25.824  1.00  0.00    -0.228 NA
ATOM     29  N   UNL     1     -46.062  33.196  28.058  1.00  0.00    -0.259 NA
ATOM     30  H   UNL     1     -45.577  35.104  28.686  1.00  0.00     0.086 H 
ATOM     31  C   UNL     1     -47.260  33.086  25.959  1.00  0.00     0.157 A 
ATOM     32  C   UNL     1     -46.672  32.490  27.070  1.00  0.00     0.070 A 
ATOM     33  H   UNL     1     -46.648  31.421  27.236  1.00  0.00     0.088 H 
BRANCH  31  34
ATOM     34  N   UNL     1     -47.887  32.288  24.947  1.00  0.00    -0.284 N 
ATOM     35  C   UNL     1     -49.250  32.115  24.767  1.00  0.00     0.017 A 
ATOM     36  C   UNL     1     -47.240  31.544  23.965  1.00  0.00     0.151 A 
ATOM     37  C   UNL     1     -49.490  31.276  23.692  1.00  0.00    -0.013 A 
ATOM     38  H   UNL     1     -49.967  32.595  25.415  1.00  0.00     0.083 H 
ATOM     39  C   UNL     1     -48.203  30.924  23.168  1.00  0.00     0.065 A 
ATOM     40  N   UNL     1     -45.908  31.429  23.797  1.00  0.00    -0.218 NA
ATOM     41  C   UNL     1     -47.723  30.138  22.102  1.00  0.00     0.136 A 
ATOM     42  C   UNL     1     -45.575  30.649  22.766  1.00  0.00     0.120 A 
ATOM     43  N   UNL     1     -46.398  30.011  21.919  1.00  0.00    -0.219 NA
ATOM     44  H   UNL     1     -44.512  30.517  22.591  1.00  0.00     0.106 H 
BRANCH  37  45
ATOM     45  C   UNL     1     -50.829  30.811  23.170  1.00  0.00    -0.014 C 
ATOM     46  C   UNL     1     -52.048  31.440  23.855  1.00  0.00    -0.046 C 
ATOM     47  C   UNL     1     -51.045  31.183  21.700  1.00  0.00    -0.046 C 
ATOM     48  H   UNL     1     -50.882  29.724  23.299  1.00  0.00     0.035 H 
ATOM     49  C   UNL     1     -52.421  32.672  23.028  1.00  0.00    -0.053 C 
ATOM     50  H   UNL     1     -52.887  30.732  23.816  1.00  0.00     0.027 H 
ATOM     51  H   UNL     1     -51.888  31.683  24.910  1.00  0.00     0.027 H 
ATOM     52  C   UNL     1     -51.600  32.600  21.745  1.00  0.00    -0.053 C 
ATOM     53  H   UNL     1     -51.794  30.514  21.257  1.00  0.00     0.027 H 
ATOM     54  H   UNL     1     -50.138  31.121  21.090  1.00  0.00     0.027 H 
ATOM     55  H   UNL     1     -52.204  33.598  23.572  1.00  0.00     0.027 H 
ATOM     56  H   UNL     1     -53.495  32.671  22.809  1.00  0.00     0.027 H 
ATOM     57  H   UNL     1     -50.781  33.327  21.785  1.00  0.00     0.027 H 
ATOM     58  H   UNL     1     -52.200  32.832  20.860  1.00  0.00     0.027 H 
ENDBRANCH  37  45
BRANCH  41  59
ATOM     59  N   UNL     1     -48.531  29.483  21.181  1.00  0.00    -0.383 N 
ATOM     60  H   UNL     1     -48.281  29.660  20.219  1.00  0.00     0.158 HD
ATOM     61  H   UNL     1     -48.595  28.502  21.435  1.00  0.00     0.158 HD
ENDBRANCH  41  59
ENDBRANCH  31  34
ENDBRANCH   1  26
TORSDOF 8
ENDMDL
MODEL 2
REMARK VINA RESULT:      -9.9      2.154     10.804
REMARK SMILES CNc1ccc2ccc(OCc3cncc(-n4cc(C5CCCC5)c5c(N)ncnc54)n3)cc2n1
REMARK SMILES IDX 11 1 10 4 9 5 3 6 4 7 35 8 5 9 34 11 6 12 33 14 7 15 8 17
REMARK SMILES IDX 2 20 1 22 12 26 13 27 32 28 14 29 16 31 15 32 17 34 18 35
REMARK SMILES IDX 31 36 19 37 25 39 30 40 26 41 29 42 28 43 20 45 21 46 24 47
REMARK SMILES IDX 22 49 23 52 27 59
REMARK H PARENT 11 2 11 3 4 10 5 13 33 16 7 18 8 19 2 21 1 23 1 24 1 25 13 30
REMARK H PARENT 15 33 18 38 29 44 20 48 21 50 21 51 24 53 24 54 22 55 22 56
REMARK H PARENT 23 57 23 58 27 60 27 61
REMARK Flexibility Score: inf
ROOT
ATOM      1  C   UNL     1     -46.046  34.382  27.281  1.00  0.00     0.132 C 
ATOM      2  H   UNL     1     -45.419  33.596  27.719  1.00  0.00     0.078 H 
ATOM      3  H   UNL     1     -45.652  34.678  26.301  1.00  0.00     0.078 H 
ENDROOT
BRANCH   1   4
ATOM      4  O   UNL     1     -47.392  33.911  27.153  1.00  0.00    -0.487 OA
BRANCH   4   5
ATOM      5  C   UNL     1     -47.658  33.064  26.112  1.00  0.00     0.122 A 
ATOM      6  C   UNL     1     -46.510  30.292  22.426  1.00  0.00     0.126 A 
ATOM      7  C   UNL     1     -47.836  29.959  22.187  1.00  0.00    -0.019 A 
ATOM      8  N   UNL     1     -46.140  31.109  23.430  1.00  0.00    -0.231 NA
ATOM      9  C   UNL     1     -48.822  30.503  23.002  1.00  0.00    -0.049 A 
ATOM     10  H   UNL     1     -48.101  29.271  21.395  1.00  0.00     0.066 H 
ATOM     11  C   UNL     1     -47.090  31.637  24.224  1.00  0.00     0.076 A 
ATOM     12  C   UNL     1     -48.460  31.361  24.044  1.00  0.00     0.001 A 
ATOM     13  H   UNL     1     -49.863  30.246  22.826  1.00  0.00     0.063 H 
ATOM     14  C   UNL     1     -46.715  32.484  25.259  1.00  0.00     0.007 A 
ATOM     15  C   UNL     1     -49.415  31.937  24.895  1.00  0.00    -0.049 A 
ATOM     16  H   UNL     1     -45.652  32.672  25.376  1.00  0.00     0.069 H 
ATOM     17  C   UNL     1     -49.010  32.785  25.923  1.00  0.00    -0.019 A 
ATOM     18  H   UNL     1     -50.474  31.728  24.765  1.00  0.00     0.063 H 
ATOM     19  H   UNL     1     -49.753  33.228  26.583  1.00  0.00     0.066 H 
BRANCH   6  20
ATOM     20  N   UNL     1     -45.465  29.773  21.660  1.00  0.00    -0.373 N 
ATOM     21  H   UNL     1     -45.935  29.362  20.853  1.00  0.00     0.161 HD
BRANCH  20  22
ATOM     22  C   UNL     1     -44.652  28.789  22.356  1.00  0.00     0.005 C 
ATOM     23  H   UNL     1     -43.691  28.632  21.853  1.00  0.00     0.045 H 
ATOM     24  H   UNL     1     -45.171  27.831  22.453  1.00  0.00     0.045 H 
ATOM     25  H   UNL     1     -44.443  29.150  23.368  1.00  0.00     0.045 H 
ENDBRANCH  20  22
ENDBRANCH   6  20
ENDBRANCH   4   5
ENDBRANCH   1   4
BRANCH   1  26
ATOM     26  C   UNL     1     -46.009  35.592  28.179  1.00  0.00     0.099 A 
ATOM     27  C   UNL     1     -46.269  35.489  29.539  1.00  0.00     0.052 A 
ATOM     28  N   UNL     1     -45.772  36.799  27.605  1.00  0.00    -0.228 NA
ATOM     29  N   UNL     1     -46.284  36.561  30.363  1.00  0.00    -0.259 NA
ATOM     30  H   UNL     1     -46.476  34.534  30.010  1.00  0.00     0.086 H 
ATOM     31  C   UNL     1     -45.773  37.894  28.409  1.00  0.00     0.157 A 
ATOM     32  C   UNL     1     -46.028  37.756  29.771  1.00  0.00     0.070 A 
ATOM     33  H   UNL     1     -46.049  38.586  30.464  1.00  0.00     0.088 H 
BRANCH  31  34
ATOM     34  N   UNL     1     -45.513  39.182  27.840  1.00  0.00    -0.284 N 
ATOM     35  C   UNL     1     -44.269  39.777  27.692  1.00  0.00     0.017 A 
ATOM     36  C   UNL     1     -46.460  40.068  27.336  1.00  0.00     0.151 A 
ATOM     37  C   UNL     1     -44.400  41.024  27.105  1.00  0.00    -0.013 A 
ATOM     38  H   UNL     1     -43.368  39.280  28.015  1.00  0.00     0.083 H 
ATOM     39  C   UNL     1     -45.802  41.203  26.860  1.00  0.00     0.065 A 
ATOM     40  N   UNL     1     -47.794  39.879  27.304  1.00  0.00    -0.218 NA
ATOM     41  C   UNL     1     -46.612  42.205  26.292  1.00  0.00     0.136 A 
ATOM     42  C   UNL     1     -48.455  40.901  26.757  1.00  0.00     0.120 A 
ATOM     43  N   UNL     1     -47.944  42.035  26.252  1.00  0.00    -0.219 NA
ATOM     44  H   UNL     1     -49.535  40.803  26.713  1.00  0.00     0.106 H 
BRANCH  37  45
ATOM     45  C   UNL     1     -43.301  42.009  26.784  1.00  0.00    -0.014 C 
ATOM     46  C   UNL     1     -43.276  43.264  27.664  1.00  0.00    -0.046 C 
ATOM     47  C   UNL     1     -41.905  41.421  27.003  1.00  0.00    -0.046 C 
ATOM     48  H   UNL     1     -43.423  42.321  25.740  1.00  0.00     0.035 H 
ATOM     49  C   UNL     1     -42.333  42.956  28.830  1.00  0.00    -0.053 C 
ATOM     50  H   UNL     1     -42.853  44.098  27.089  1.00  0.00     0.027 H 
ATOM     51  H   UNL     1     -44.265  43.586  28.007  1.00  0.00     0.027 H 
ATOM     52  C   UNL     1     -41.624  41.651  28.482  1.00  0.00    -0.053 C 
ATOM     53  H   UNL     1     -41.173  41.978  26.404  1.00  0.00     0.027 H 
ATOM     54  H   UNL     1     -41.823  40.363  26.734  1.00  0.00     0.027 H 
ATOM     55  H   UNL     1     -42.883  42.855  29.772  1.00  0.00     0.027 H 
ATOM     56  H   UNL     1     -41.613  43.772  28.961  1.00  0.00     0.027 H 
ATOM     57  H   UNL     1     -42.039  40.831  29.079  1.00  0.00     0.027 H 
ATOM     58  H   UNL     1     -40.551  41.698  28.692  1.00  0.00     0.027 H 
ENDBRANCH  37  45
BRANCH  41  59
ATOM     59  N   UNL     1     -46.131  43.382  25.730  1.00  0.00    -0.383 N 
ATOM     60  H   UNL     1     -45.188  43.612  26.007  1.00  0.00     0.158 HD
ATOM     61  H   UNL     1     -46.291  43.361  24.729  1.00  0.00     0.158 HD
ENDBRANCH  41  59
ENDBRANCH  31  34
ENDBRANCH   1  26
TORSDOF 8
ENDMDL
MODEL 3
REMARK VINA RESULT:      -9.8      2.620     11.265
REMARK SMILES CNc1ccc2ccc(OCc3cncc(-n4cc(C5CCCC5)c5c(N)ncnc54)n3)cc2n1
REMARK SMILES IDX 11 1 10 4 9 5 3 6 4 7 35 8 5 9 34 11 6 12 33 14 7 15 8 17
REMARK SMILES IDX 2 20 1 22 12 26 13 27 32 28 14 29 16 31 15 32 17 34 18 35
REMARK SMILES IDX 31 36 19 37 25 39 30 40 26 41 29 42 28 43 20 45 21 46 24 47
REMARK SMILES IDX 22 49 23 52 27 59
REMARK H PARENT 11 2 11 3 4 10 5 13 33 16 7 18 8 19 2 21 1 23 1 24 1 25 13 30
REMARK H PARENT 15 33 18 38 29 44 20 48 21 50 21 51 24 53 24 54 22 55 22 56
REMARK H PARENT 23 57 23 58 27 60 27 61
REMARK Flexibility Score: inf
ROOT
ATOM      1  C   UNL     1     -46.636  34.813  26.382  1.00  0.00     0.132 C 
ATOM      2  H   UNL     1     -45.803  34.398  26.962  1.00  0.00     0.078 H 
ATOM      3  H   UNL     1     -46.334  34.958  25.337  1.00  0.00     0.078 H 
ENDROOT
BRANCH   1   4
ATOM      4  O   UNL     1     -47.761  33.932  26.456  1.00  0.00    -0.487 OA
BRANCH   4   5
ATOM      5  C   UNL     1     -47.696  32.777  25.725  1.00  0.00     0.122 A 
ATOM      6  C   UNL     1     -49.078  28.410  24.457  1.00  0.00     0.126 A 
ATOM      7  C   UNL     1     -48.087  28.313  23.491  1.00  0.00    -0.019 A 
ATOM      8  N   UNL     1     -49.235  29.507  25.222  1.00  0.00    -0.231 NA
ATOM      9  C   UNL     1     -47.210  29.377  23.319  1.00  0.00    -0.049 A 
ATOM     10  H   UNL     1     -48.007  27.432  22.866  1.00  0.00     0.066 H 
ATOM     11  C   UNL     1     -48.392  30.542  25.058  1.00  0.00     0.076 A 
ATOM     12  C   UNL     1     -47.349  30.520  24.110  1.00  0.00     0.001 A 
ATOM     13  H   UNL     1     -46.432  29.312  22.563  1.00  0.00     0.063 H 
ATOM     14  C   UNL     1     -48.546  31.674  25.849  1.00  0.00     0.007 A 
ATOM     15  C   UNL     1     -46.492  31.622  23.977  1.00  0.00    -0.049 A 
ATOM     16  H   UNL     1     -49.361  31.662  26.565  1.00  0.00     0.069 H 
ATOM     17  C   UNL     1     -46.669  32.744  24.784  1.00  0.00    -0.019 A 
ATOM     18  H   UNL     1     -45.687  31.616  23.246  1.00  0.00     0.063 H 
ATOM     19  H   UNL     1     -46.004  33.598  24.677  1.00  0.00     0.066 H 
BRANCH   6  20
ATOM     20  N   UNL     1     -50.005  27.389  24.676  1.00  0.00    -0.373 N 
ATOM     21  H   UNL     1     -49.472  26.536  24.505  1.00  0.00     0.161 HD
BRANCH  20  22
ATOM     22  C   UNL     1     -51.179  27.459  23.821  1.00  0.00     0.005 C 
ATOM     23  H   UNL     1     -51.109  28.288  23.109  1.00  0.00     0.045 H 
ATOM     24  H   UNL     1     -52.099  27.557  24.405  1.00  0.00     0.045 H 
ATOM     25  H   UNL     1     -51.256  26.531  23.246  1.00  0.00     0.045 H 
ENDBRANCH  20  22
ENDBRANCH   6  20
ENDBRANCH   4   5
ENDBRANCH   1   4
BRANCH   1  26
ATOM     26  C   UNL     1     -47.001  36.160  26.950  1.00  0.00     0.099 A 
ATOM     27  C   UNL     1     -48.284  36.427  27.409  1.00  0.00     0.052 A 
ATOM     28  N   UNL     1     -46.049  37.129  26.943  1.00  0.00    -0.228 NA
ATOM     29  N   UNL     1     -48.652  37.637  27.885  1.00  0.00    -0.259 NA
ATOM     30  H   UNL     1     -49.059  35.668  27.407  1.00  0.00     0.086 H 
ATOM     31  C   UNL     1     -46.388  38.353  27.423  1.00  0.00     0.157 A 
ATOM     32  C   UNL     1     -47.680  38.586  27.885  1.00  0.00     0.070 A 
ATOM     33  H   UNL     1     -48.016  39.538  28.274  1.00  0.00     0.088 H 
BRANCH  31  34
ATOM     34  N   UNL     1     -45.405  39.395  27.444  1.00  0.00    -0.284 N 
ATOM     35  C   UNL     1     -45.266  40.412  26.512  1.00  0.00     0.017 A 
ATOM     36  C   UNL     1     -44.412  39.573  28.404  1.00  0.00     0.151 A 
ATOM     37  C   UNL     1     -44.207  41.235  26.853  1.00  0.00    -0.013 A 
ATOM     38  H   UNL     1     -45.926  40.486  25.662  1.00  0.00     0.083 H 
ATOM     39  C   UNL     1     -43.671  40.708  28.075  1.00  0.00     0.065 A 
ATOM     40  N   UNL     1     -44.190  38.790  29.478  1.00  0.00    -0.218 NA
ATOM     41  C   UNL     1     -42.627  41.052  28.955  1.00  0.00     0.136 A 
ATOM     42  C   UNL     1     -43.168  39.207  30.228  1.00  0.00     0.120 A 
ATOM     43  N   UNL     1     -42.389  40.283  30.031  1.00  0.00    -0.219 NA
ATOM     44  H   UNL     1     -42.941  38.607  31.103  1.00  0.00     0.106 H 
BRANCH  37  45
ATOM     45  C   UNL     1     -43.702  42.443  26.100  1.00  0.00    -0.014 C 
ATOM     46  C   UNL     1     -44.299  42.633  24.701  1.00  0.00    -0.046 C 
ATOM     47  C   UNL     1     -44.060  43.759  26.797  1.00  0.00    -0.046 C 
ATOM     48  H   UNL     1     -42.614  42.348  26.003  1.00  0.00     0.035 H 
ATOM     49  C   UNL     1     -45.516  43.545  24.870  1.00  0.00    -0.053 C 
ATOM     50  H   UNL     1     -43.567  43.150  24.066  1.00  0.00     0.027 H 
ATOM     51  H   UNL     1     -44.552  41.696  24.195  1.00  0.00     0.027 H 
ATOM     52  C   UNL     1     -45.462  44.084  26.297  1.00  0.00    -0.053 C 
ATOM     53  H   UNL     1     -43.368  44.547  26.473  1.00  0.00     0.027 H 
ATOM     54  H   UNL     1     -44.021  43.707  27.889  1.00  0.00     0.027 H 
ATOM     55  H   UNL     1     -46.451  42.998  24.702  1.00  0.00     0.027 H 
ATOM     56  H   UNL     1     -45.484  44.362  24.140  1.00  0.00     0.027 H 
ATOM     57  H   UNL     1     -46.211  43.578  26.915  1.00  0.00     0.027 H 
ATOM     58  H   UNL     1     -45.672  45.157  26.339  1.00  0.00     0.027 H 
ENDBRANCH  37  45
BRANCH  41  59
ATOM     59  N   UNL     1     -41.813  42.169  28.813  1.00  0.00    -0.383 N 
ATOM     60  H   UNL     1     -40.847  42.005  29.058  1.00  0.00     0.158 HD
ATOM     61  H   UNL     1     -41.961  42.572  27.893  1.00  0.00     0.158 HD
ENDBRANCH  41  59
ENDBRANCH  31  34
ENDBRANCH   1  26
TORSDOF 8
ENDMDL
MODEL 4
REMARK VINA RESULT:      -9.6      2.559      3.695
REMARK SMILES CNc1ccc2ccc(OCc3cncc(-n4cc(C5CCCC5)c5c(N)ncnc54)n3)cc2n1
REMARK SMILES IDX 11 1 10 4 9 5 3 6 4 7 35 8 5 9 34 11 6 12 33 14 7 15 8 17
REMARK SMILES IDX 2 20 1 22 12 26 13 27 32 28 14 29 16 31 15 32 17 34 18 35
REMARK SMILES IDX 31 36 19 37 25 39 30 40 26 41 29 42 28 43 20 45 21 46 24 47
REMARK SMILES IDX 22 49 23 52 27 59
REMARK H PARENT 11 2 11 3 4 10 5 13 33 16 7 18 8 19 2 21 1 23 1 24 1 25 13 30
REMARK H PARENT 15 33 18 38 29 44 20 48 21 50 21 51 24 53 24 54 22 55 22 56
REMARK H PARENT 23 57 23 58 27 60 27 61
REMARK Flexibility Score: inf
ROOT
ATOM      1  C   UNL     1     -48.839  34.811  26.864  1.00  0.00     0.132 C 
ATOM      2  H   UNL     1     -49.832  34.382  27.042  1.00  0.00     0.078 H 
ATOM      3  H   UNL     1     -48.924  35.722  26.259  1.00  0.00     0.078 H 
ENDROOT
BRANCH   1   4
ATOM      4  O   UNL     1     -48.207  35.102  28.115  1.00  0.00    -0.487 OA
BRANCH   4   5
ATOM      5  C   UNL     1     -47.335  36.156  28.141  1.00  0.00     0.122 A 
ATOM      6  C   UNL     1     -45.592  40.328  26.677  1.00  0.00     0.126 A 
ATOM      7  C   UNL     1     -44.581  40.305  27.625  1.00  0.00    -0.019 A 
ATOM      8  N   UNL     1     -46.507  39.346  26.573  1.00  0.00    -0.231 NA
ATOM      9  C   UNL     1     -44.494  39.220  28.490  1.00  0.00    -0.049 A 
ATOM     10  H   UNL     1     -43.880  41.127  27.709  1.00  0.00     0.066 H 
ATOM     11  C   UNL     1     -46.430  38.294  27.409  1.00  0.00     0.076 A 
ATOM     12  C   UNL     1     -45.427  38.185  28.392  1.00  0.00     0.001 A 
ATOM     13  H   UNL     1     -43.707  39.195  29.238  1.00  0.00     0.063 H 
ATOM     14  C   UNL     1     -47.369  37.274  27.303  1.00  0.00     0.007 A 
ATOM     15  C   UNL     1     -45.386  37.068  29.239  1.00  0.00    -0.049 A 
ATOM     16  H   UNL     1     -48.132  37.390  26.540  1.00  0.00     0.069 H 
ATOM     17  C   UNL     1     -46.338  36.060  29.109  1.00  0.00    -0.019 A 
ATOM     18  H   UNL     1     -44.616  36.977  30.003  1.00  0.00     0.063 H 
ATOM     19  H   UNL     1     -46.305  35.196  29.769  1.00  0.00     0.066 H 
BRANCH   6  20
ATOM     20  N   UNL     1     -45.752  41.391  25.786  1.00  0.00    -0.373 N 
ATOM     21  H   UNL     1     -46.139  40.953  24.950  1.00  0.00     0.161 HD
BRANCH  20  22
ATOM     22  C   UNL     1     -44.521  42.105  25.486  1.00  0.00     0.005 C 
ATOM     23  H   UNL     1     -44.119  42.605  26.374  1.00  0.00     0.045 H 
ATOM     24  H   UNL     1     -44.663  42.840  24.688  1.00  0.00     0.045 H 
ATOM     25  H   UNL     1     -43.770  41.389  25.139  1.00  0.00     0.045 H 
ENDBRANCH  20  22
ENDBRANCH   6  20
ENDBRANCH   4   5
ENDBRANCH   1   4
BRANCH   1  26
ATOM     26  C   UNL     1     -48.012  33.818  26.089  1.00  0.00     0.099 A 
ATOM     27  C   UNL     1     -46.662  34.035  25.847  1.00  0.00     0.052 A 
ATOM     28  N   UNL     1     -48.643  32.728  25.582  1.00  0.00    -0.228 NA
ATOM     29  N   UNL     1     -45.904  33.184  25.121  1.00  0.00    -0.259 NA
ATOM     30  H   UNL     1     -46.147  34.909  26.233  1.00  0.00     0.086 H 
ATOM     31  C   UNL     1     -47.905  31.850  24.854  1.00  0.00     0.157 A 
ATOM     32  C   UNL     1     -46.551  32.092  24.637  1.00  0.00     0.070 A 
ATOM     33  H   UNL     1     -45.909  31.438  24.063  1.00  0.00     0.088 H 
BRANCH  31  34
ATOM     34  N   UNL     1     -48.534  30.682  24.315  1.00  0.00    -0.284 N 
ATOM     35  C   UNL     1     -48.385  29.383  24.776  1.00  0.00     0.017 A 
ATOM     36  C   UNL     1     -49.408  30.641  23.232  1.00  0.00     0.151 A 
ATOM     37  C   UNL     1     -49.142  28.512  24.011  1.00  0.00    -0.013 A 
ATOM     38  H   UNL     1     -47.748  29.156  25.616  1.00  0.00     0.083 H 
ATOM     39  C   UNL     1     -49.811  29.321  23.034  1.00  0.00     0.065 A 
ATOM     40  N   UNL     1     -49.808  31.691  22.488  1.00  0.00    -0.218 NA
ATOM     41  C   UNL     1     -50.720  29.094  21.981  1.00  0.00     0.136 A 
ATOM     42  C   UNL     1     -50.654  31.350  21.514  1.00  0.00     0.120 A 
ATOM     43  N   UNL     1     -51.129  30.128  21.227  1.00  0.00    -0.219 NA
ATOM     44  H   UNL     1     -51.002  32.159  20.879  1.00  0.00     0.106 H 
BRANCH  37  45
ATOM     45  C   UNL     1     -49.249  27.013  24.161  1.00  0.00    -0.014 C 
ATOM     46  C   UNL     1     -48.245  26.383  25.133  1.00  0.00    -0.046 C 
ATOM     47  C   UNL     1     -50.596  26.577  24.745  1.00  0.00    -0.046 C 
ATOM     48  H   UNL     1     -49.101  26.565  23.171  1.00  0.00     0.035 H 
ATOM     49  C   UNL     1     -48.938  26.329  26.496  1.00  0.00    -0.053 C 
ATOM     50  H   UNL     1     -48.032  25.355  24.813  1.00  0.00     0.027 H 
ATOM     51  H   UNL     1     -47.284  26.906  25.178  1.00  0.00     0.027 H 
ATOM     52  C   UNL     1     -50.404  26.673  26.252  1.00  0.00    -0.053 C 
ATOM     53  H   UNL     1     -50.796  25.533  24.470  1.00  0.00     0.027 H 
ATOM     54  H   UNL     1     -51.443  27.181  24.404  1.00  0.00     0.027 H 
ATOM     55  H   UNL     1     -48.489  27.037  27.200  1.00  0.00     0.027 H 
ATOM     56  H   UNL     1     -48.836  25.329  26.934  1.00  0.00     0.027 H 
ATOM     57  H   UNL     1     -50.610  27.692  26.597  1.00  0.00     0.027 H 
ATOM     58  H   UNL     1     -51.079  26.002  26.793  1.00  0.00     0.027 H 
ENDBRANCH  37  45
BRANCH  41  59
ATOM     59  N   UNL     1     -51.263  27.855  21.663  1.00  0.00    -0.383 N 
ATOM     60  H   UNL     1     -52.234  27.892  21.388  1.00  0.00     0.158 HD
ATOM     61  H   UNL     1     -50.649  27.382  21.008  1.00  0.00     0.158 HD
ENDBRANCH  41  59
ENDBRANCH  31  34
ENDBRANCH   1  26
TORSDOF 8
ENDMDL
MODEL 5
REMARK VINA RESULT:      -9.5      2.023     10.720
REMARK SMILES CNc1ccc2ccc(OCc3cncc(-n4cc(C5CCCC5)c5c(N)ncnc54)n3)cc2n1
REMARK SMILES IDX 11 1 10 4 9 5 3 6 4 7 35 8 5 9 34 11 6 12 33 14 7 15 8 17
REMARK SMILES IDX 2 20 1 22 12 26 13 27 32 28 14 29 16 31 15 32 17 34 18 35
REMARK SMILES IDX 31 36 19 37 25 39 30 40 26 41 29 42 28 43 20 45 21 46 24 47
REMARK SMILES IDX 22 49 23 52 27 59
REMARK H PARENT 11 2 11 3 4 10 5 13 33 16 7 18 8 19 2 21 1 23 1 24 1 25 13 30
REMARK H PARENT 15 33 18 38 29 44 20 48 21 50 21 51 24 53 24 54 22 55 22 56
REMARK H PARENT 23 57 23 58 27 60 27 61
REMARK Flexibility Score: inf
ROOT
ATOM      1  C   UNL     1     -46.010  34.724  27.100  1.00  0.00     0.132 C 
ATOM      2  H   UNL     1     -45.205  34.523  27.817  1.00  0.00     0.078 H 
ATOM      3  H   UNL     1     -45.623  34.683  26.075  1.00  0.00     0.078 H 
ENDROOT
BRANCH   1   4
ATOM      4  O   UNL     1     -47.061  33.768  27.273  1.00  0.00    -0.487 OA
BRANCH   4   5
ATOM      5  C   UNL     1     -47.415  33.027  26.178  1.00  0.00     0.122 A 
ATOM      6  C   UNL     1     -46.708  31.062  21.909  1.00  0.00     0.126 A 
ATOM      7  C   UNL     1     -47.974  30.494  21.896  1.00  0.00    -0.019 A 
ATOM      8  N   UNL     1     -46.259  31.799  22.943  1.00  0.00    -0.231 NA
ATOM      9  C   UNL     1     -48.818  30.710  22.979  1.00  0.00    -0.049 A 
ATOM     10  H   UNL     1     -48.295  29.875  21.067  1.00  0.00     0.066 H 
ATOM     11  C   UNL     1     -47.070  32.009  23.995  1.00  0.00     0.076 A 
ATOM     12  C   UNL     1     -48.375  31.481  24.056  1.00  0.00     0.001 A 
ATOM     13  H   UNL     1     -49.810  30.266  22.978  1.00  0.00     0.063 H 
ATOM     14  C   UNL     1     -46.614  32.773  25.062  1.00  0.00     0.007 A 
ATOM     15  C   UNL     1     -49.186  31.728  25.173  1.00  0.00    -0.049 A 
ATOM     16  H   UNL     1     -45.603  33.161  24.987  1.00  0.00     0.069 H 
ATOM     17  C   UNL     1     -48.703  32.500  26.227  1.00  0.00    -0.019 A 
ATOM     18  H   UNL     1     -50.194  31.322  25.230  1.00  0.00     0.063 H 
ATOM     19  H   UNL     1     -49.334  32.688  27.093  1.00  0.00     0.066 H 
BRANCH   6  20
ATOM     20  N   UNL     1     -45.799  30.876  20.866  1.00  0.00    -0.373 N 
ATOM     21  H   UNL     1     -44.894  31.072  21.294  1.00  0.00     0.161 HD
BRANCH  20  22
ATOM     22  C   UNL     1     -46.035  31.731  19.714  1.00  0.00     0.005 C 
ATOM     23  H   UNL     1     -46.132  31.147  18.792  1.00  0.00     0.045 H 
ATOM     24  H   UNL     1     -45.242  32.474  19.592  1.00  0.00     0.045 H 
ATOM     25  H   UNL     1     -46.972  32.277  19.862  1.00  0.00     0.045 H 
ENDBRANCH  20  22
ENDBRANCH   6  20
ENDBRANCH   4   5
ENDBRANCH   1   4
BRANCH   1  26
ATOM     26  C   UNL     1     -46.538  36.115  27.340  1.00  0.00     0.099 A 
ATOM     27  C   UNL     1     -47.900  36.365  27.434  1.00  0.00     0.052 A 
ATOM     28  N   UNL     1     -45.638  37.131  27.401  1.00  0.00    -0.228 NA
ATOM     29  N   UNL     1     -48.405  37.607  27.607  1.00  0.00    -0.259 NA
ATOM     30  H   UNL     1     -48.632  35.566  27.371  1.00  0.00     0.086 H 
ATOM     31  C   UNL     1     -46.116  38.390  27.582  1.00  0.00     0.157 A 
ATOM     32  C   UNL     1     -47.487  38.606  27.682  1.00  0.00     0.070 A 
ATOM     33  H   UNL     1     -47.933  39.582  27.821  1.00  0.00     0.088 H 
BRANCH  31  34
ATOM     34  N   UNL     1     -45.196  39.484  27.666  1.00  0.00    -0.284 N 
ATOM     35  C   UNL     1     -45.163  40.594  26.836  1.00  0.00     0.017 A 
ATOM     36  C   UNL     1     -44.169  39.629  28.594  1.00  0.00     0.151 A 
ATOM     37  C   UNL     1     -44.138  41.445  27.212  1.00  0.00    -0.013 A 
ATOM     38  H   UNL     1     -45.867  40.710  26.027  1.00  0.00     0.083 H 
ATOM     39  C   UNL     1     -43.512  40.835  28.349  1.00  0.00     0.065 A 
ATOM     40  N   UNL     1     -43.848  38.760  29.573  1.00  0.00    -0.218 NA
ATOM     41  C   UNL     1     -42.448  41.156  29.214  1.00  0.00     0.136 A 
ATOM     42  C   UNL     1     -42.816  39.165  30.316  1.00  0.00     0.120 A 
ATOM     43  N   UNL     1     -42.112  40.302  30.195  1.00  0.00    -0.219 NA
ATOM     44  H   UNL     1     -42.511  38.497  31.115  1.00  0.00     0.106 H 
BRANCH  37  45
ATOM     45  C   UNL     1     -43.742  42.751  26.564  1.00  0.00    -0.014 C 
ATOM     46  C   UNL     1     -43.070  42.618  25.193  1.00  0.00    -0.046 C 
ATOM     47  C   UNL     1     -44.949  43.642  26.258  1.00  0.00    -0.046 C 
ATOM     48  H   UNL     1     -43.050  43.266  27.240  1.00  0.00     0.035 H 
ATOM     49  C   UNL     1     -44.187  42.715  24.151  1.00  0.00    -0.053 C 
ATOM     50  H   UNL     1     -42.386  43.465  25.044  1.00  0.00     0.027 H 
ATOM     51  H   UNL     1     -42.474  41.707  25.076  1.00  0.00     0.027 H 
ATOM     52  C   UNL     1     -45.440  43.163  24.898  1.00  0.00    -0.053 C 
ATOM     53  H   UNL     1     -44.624  44.687  26.178  1.00  0.00     0.027 H 
ATOM     54  H   UNL     1     -45.739  43.594  27.014  1.00  0.00     0.027 H 
ATOM     55  H   UNL     1     -44.357  41.752  23.658  1.00  0.00     0.027 H 
ATOM     56  H   UNL     1     -43.917  43.435  23.370  1.00  0.00     0.027 H 
ATOM     57  H   UNL     1     -46.124  42.316  25.020  1.00  0.00     0.027 H 
ATOM     58  H   UNL     1     -45.981  43.947  24.360  1.00  0.00     0.027 H 
ENDBRANCH  37  45
BRANCH  41  59
ATOM     59  N   UNL     1     -41.708  42.331  29.150  1.00  0.00    -0.383 N 
ATOM     60  H   UNL     1     -41.281  42.497  28.250  1.00  0.00     0.158 HD
ATOM     61  H   UNL     1     -42.271  43.097  29.505  1.00  0.00     0.158 HD
ENDBRANCH  41  59
ENDBRANCH  31  34
ENDBRANCH   1  26
TORSDOF 8
ENDMDL
MODEL 6
REMARK VINA RESULT:      -9.3      2.333     10.853
REMARK SMILES CNc1ccc2ccc(OCc3cncc(-n4cc(C5CCCC5)c5c(N)ncnc54)n3)cc2n1
REMARK SMILES IDX 11 1 10 4 9 5 3 6 4 7 35 8 5 9 34 11 6 12 33 14 7 15 8 17
REMARK SMILES IDX 2 20 1 22 12 26 13 27 32 28 14 29 16 31 15 32 17 34 18 35
REMARK SMILES IDX 31 36 19 37 25 39 30 40 26 41 29 42 28 43 20 45 21 46 24 47
REMARK SMILES IDX 22 49 23 52 27 59
REMARK H PARENT 11 2 11 3 4 10 5 13 33 16 7 18 8 19 2 21 1 23 1 24 1 25 13 30
REMARK H PARENT 15 33 18 38 29 44 20 48 21 50 21 51 24 53 24 54 22 55 22 56
REMARK H PARENT 23 57 23 58 27 60 27 61
REMARK Flexibility Score: inf
ROOT
ATOM      1  C   UNL     1     -47.486  37.327  28.155  1.00  0.00     0.132 C 
ATOM      2  H   UNL     1     -48.470  36.843  28.166  1.00  0.00     0.078 H 
ATOM      3  H   UNL     1     -47.022  37.262  29.147  1.00  0.00     0.078 H 
ENDROOT
BRANCH   1   4
ATOM      4  O   UNL     1     -46.652  36.700  27.174  1.00  0.00    -0.487 OA
BRANCH   4   5
ATOM      5  C   UNL     1     -47.087  35.511  26.656  1.00  0.00     0.122 A 
ATOM      6  C   UNL     1     -46.652  31.508  24.132  1.00  0.00     0.126 A 
ATOM      7  C   UNL     1     -47.947  31.110  24.429  1.00  0.00    -0.019 A 
ATOM      8  N   UNL     1     -46.123  32.654  24.601  1.00  0.00    -0.231 NA
ATOM      9  C   UNL     1     -48.737  31.933  25.223  1.00  0.00    -0.049 A 
ATOM     10  H   UNL     1     -48.334  30.165  24.068  1.00  0.00     0.066 H 
ATOM     11  C   UNL     1     -46.882  33.454  25.372  1.00  0.00     0.076 A 
ATOM     12  C   UNL     1     -48.211  33.132  25.711  1.00  0.00     0.001 A 
ATOM     13  H   UNL     1     -49.752  31.628  25.464  1.00  0.00     0.063 H 
ATOM     14  C   UNL     1     -46.344  34.640  25.854  1.00  0.00     0.007 A 
ATOM     15  C   UNL     1     -48.965  33.998  26.516  1.00  0.00    -0.049 A 
ATOM     16  H   UNL     1     -45.316  34.857  25.581  1.00  0.00     0.069 H 
ATOM     17  C   UNL     1     -48.400  35.182  26.984  1.00  0.00    -0.019 A 
ATOM     18  H   UNL     1     -49.991  33.756  26.785  1.00  0.00     0.063 H 
ATOM     19  H   UNL     1     -48.987  35.851  27.610  1.00  0.00     0.066 H 
BRANCH   6  20
ATOM     20  N   UNL     1     -45.794  30.727  23.355  1.00  0.00    -0.373 N 
ATOM     21  H   UNL     1     -45.660  31.281  22.510  1.00  0.00     0.161 HD
BRANCH  20  22
ATOM     22  C   UNL     1     -46.314  29.405  23.043  1.00  0.00     0.005 C 
ATOM     23  H   UNL     1     -45.559  28.780  22.555  1.00  0.00     0.045 H 
ATOM     24  H   UNL     1     -47.205  29.460  22.410  1.00  0.00     0.045 H 
ATOM     25  H   UNL     1     -46.607  28.909  23.974  1.00  0.00     0.045 H 
ENDBRANCH  20  22
ENDBRANCH   6  20
ENDBRANCH   4   5
ENDBRANCH   1   4
BRANCH   1  26
ATOM     26  C   UNL     1     -47.663  38.785  27.821  1.00  0.00     0.099 A 
ATOM     27  C   UNL     1     -48.892  39.415  27.968  1.00  0.00     0.052 A 
ATOM     28  N   UNL     1     -46.595  39.453  27.313  1.00  0.00    -0.228 NA
ATOM     29  N   UNL     1     -49.092  40.711  27.638  1.00  0.00    -0.259 NA
ATOM     30  H   UNL     1     -49.758  38.892  28.358  1.00  0.00     0.086 H 
ATOM     31  C   UNL     1     -46.765  40.759  26.979  1.00  0.00     0.157 A 
ATOM     32  C   UNL     1     -48.007  41.364  27.147  1.00  0.00     0.070 A 
ATOM     33  H   UNL     1     -48.210  42.397  26.897  1.00  0.00     0.088 H 
BRANCH  31  34
ATOM     34  N   UNL     1     -45.656  41.498  26.454  1.00  0.00    -0.284 N 
ATOM     35  C   UNL     1     -45.679  42.341  25.354  1.00  0.00     0.017 A 
ATOM     36  C   UNL     1     -44.357  41.502  26.954  1.00  0.00     0.151 A 
ATOM     37  C   UNL     1     -44.424  42.883  25.137  1.00  0.00    -0.013 A 
ATOM     38  H   UNL     1     -46.585  42.501  24.790  1.00  0.00     0.083 H 
ATOM     39  C   UNL     1     -43.581  42.360  26.173  1.00  0.00     0.065 A 
ATOM     40  N   UNL     1     -43.906  40.802  28.013  1.00  0.00    -0.218 NA
ATOM     41  C   UNL     1     -42.232  42.502  26.550  1.00  0.00     0.136 A 
ATOM     42  C   UNL     1     -42.611  41.007  28.263  1.00  0.00     0.120 A 
ATOM     43  N   UNL     1     -41.763  41.811  27.603  1.00  0.00    -0.219 NA
ATOM     44  H   UNL     1     -42.194  40.460  29.103  1.00  0.00     0.106 H 
BRANCH  37  45
ATOM     45  C   UNL     1     -44.009  43.830  24.036  1.00  0.00    -0.014 C 
ATOM     46  C   UNL     1     -45.042  44.021  22.920  1.00  0.00    -0.046 C 
ATOM     47  C   UNL     1     -43.799  45.260  24.542  1.00  0.00    -0.046 C 
ATOM     48  H   UNL     1     -43.085  43.444  23.591  1.00  0.00     0.035 H 
ATOM     49  C   UNL     1     -45.889  45.232  23.316  1.00  0.00    -0.053 C 
ATOM     50  H   UNL     1     -44.519  44.257  21.983  1.00  0.00     0.027 H 
ATOM     51  H   UNL     1     -45.653  43.134  22.724  1.00  0.00     0.027 H 
ATOM     52  C   UNL     1     -45.187  45.885  24.501  1.00  0.00    -0.053 C 
ATOM     53  H   UNL     1     -43.138  45.801  23.853  1.00  0.00     0.027 H 
ATOM     54  H   UNL     1     -43.358  45.316  25.543  1.00  0.00     0.027 H 
ATOM     55  H   UNL     1     -46.908  44.934  23.589  1.00  0.00     0.027 H 
ATOM     56  H   UNL     1     -45.972  45.929  22.474  1.00  0.00     0.027 H 
ATOM     57  H   UNL     1     -45.731  45.662  25.426  1.00  0.00     0.027 H 
ATOM     58  H   UNL     1     -45.142  46.974  24.403  1.00  0.00     0.027 H 
ENDBRANCH  37  45
BRANCH  41  59
ATOM     59  N   UNL     1     -41.322  43.342  25.919  1.00  0.00    -0.383 N 
ATOM     60  H   UNL     1     -41.065  44.151  26.465  1.00  0.00     0.158 HD
ATOM     61  H   UNL     1     -40.543  42.790  25.576  1.00  0.00     0.158 HD
ENDBRANCH  41  59
ENDBRANCH  31  34
ENDBRANCH   1  26
TORSDOF 8
ENDMDL
MODEL 7
REMARK VINA RESULT:      -9.3      2.237      3.397
REMARK SMILES CNc1ccc2ccc(OCc3cncc(-n4cc(C5CCCC5)c5c(N)ncnc54)n3)cc2n1
REMARK SMILES IDX 11 1 10 4 9 5 3 6 4 7 35 8 5 9 34 11 6 12 33 14 7 15 8 17
REMARK SMILES IDX 2 20 1 22 12 26 13 27 32 28 14 29 16 31 15 32 17 34 18 35
REMARK SMILES IDX 31 36 19 37 25 39 30 40 26 41 29 42 28 43 20 45 21 46 24 47
REMARK SMILES IDX 22 49 23 52 27 59
REMARK H PARENT 11 2 11 3 4 10 5 13 33 16 7 18 8 19 2 21 1 23 1 24 1 25 13 30
REMARK H PARENT 15 33 18 38 29 44 20 48 21 50 21 51 24 53 24 54 22 55 22 56
REMARK H PARENT 23 57 23 58 27 60 27 61
REMARK Flexibility Score: inf
ROOT
ATOM      1  C   UNL     1     -46.143  35.284  27.577  1.00  0.00     0.132 C 
ATOM      2  H   UNL     1     -45.488  35.582  26.749  1.00  0.00     0.078 H 
ATOM      3  H   UNL     1     -45.616  34.593  28.246  1.00  0.00     0.078 H 
ENDROOT
BRANCH   1   4
ATOM      4  O   UNL     1     -46.569  36.446  28.297  1.00  0.00    -0.487 OA
BRANCH   4   5
ATOM      5  C   UNL     1     -46.100  37.655  27.861  1.00  0.00     0.122 A 
ATOM      6  C   UNL     1     -43.259  41.463  27.991  1.00  0.00     0.126 A 
ATOM      7  C   UNL     1     -43.866  42.027  26.878  1.00  0.00    -0.019 A 
ATOM      8  N   UNL     1     -43.638  40.273  28.494  1.00  0.00    -0.231 NA
ATOM      9  C   UNL     1     -44.916  41.349  26.270  1.00  0.00    -0.049 A 
ATOM     10  H   UNL     1     -43.516  42.969  26.473  1.00  0.00     0.066 H 
ATOM     11  C   UNL     1     -44.652  39.611  27.908  1.00  0.00     0.076 A 
ATOM     12  C   UNL     1     -45.331  40.118  26.782  1.00  0.00     0.001 A 
ATOM     13  H   UNL     1     -45.395  41.781  25.395  1.00  0.00     0.063 H 
ATOM     14  C   UNL     1     -45.050  38.384  28.426  1.00  0.00     0.007 A 
ATOM     15  C   UNL     1     -46.385  39.393  26.207  1.00  0.00    -0.049 A 
ATOM     16  H   UNL     1     -44.504  38.018  29.290  1.00  0.00     0.069 H 
ATOM     17  C   UNL     1     -46.764  38.167  26.748  1.00  0.00    -0.019 A 
ATOM     18  H   UNL     1     -46.913  39.775  25.336  1.00  0.00     0.063 H 
ATOM     19  H   UNL     1     -47.580  37.606  26.298  1.00  0.00     0.066 H 
BRANCH   6  20
ATOM     20  N   UNL     1     -42.189  42.076  28.645  1.00  0.00    -0.373 N 
ATOM     21  H   UNL     1     -41.528  42.276  27.894  1.00  0.00     0.161 HD
BRANCH  20  22
ATOM     22  C   UNL     1     -41.580  41.259  29.682  1.00  0.00     0.005 C 
ATOM     23  H   UNL     1     -40.497  41.419  29.736  1.00  0.00     0.045 H 
ATOM     24  H   UNL     1     -41.783  40.195  29.530  1.00  0.00     0.045 H 
ATOM     25  H   UNL     1     -42.007  41.537  30.651  1.00  0.00     0.045 H 
ENDBRANCH  20  22
ENDBRANCH   6  20
ENDBRANCH   4   5
ENDBRANCH   1   4
BRANCH   1  26
ATOM     26  C   UNL     1     -47.340  34.562  27.015  1.00  0.00     0.099 A 
ATOM     27  C   UNL     1     -48.626  35.060  27.176  1.00  0.00     0.052 A 
ATOM     28  N   UNL     1     -47.127  33.372  26.395  1.00  0.00    -0.228 NA
ATOM     29  N   UNL     1     -49.722  34.414  26.720  1.00  0.00    -0.259 NA
ATOM     30  H   UNL     1     -48.814  36.001  27.683  1.00  0.00     0.086 H 
ATOM     31  C   UNL     1     -48.210  32.704  25.919  1.00  0.00     0.157 A 
ATOM     32  C   UNL     1     -49.485  33.234  26.089  1.00  0.00     0.070 A 
ATOM     33  H   UNL     1     -50.388  32.752  25.739  1.00  0.00     0.088 H 
BRANCH  31  34
ATOM     34  N   UNL     1     -48.022  31.453  25.247  1.00  0.00    -0.284 N 
ATOM     35  C   UNL     1     -48.575  30.235  25.610  1.00  0.00     0.017 A 
ATOM     36  C   UNL     1     -47.249  31.236  24.109  1.00  0.00     0.151 A 
ATOM     37  C   UNL     1     -48.173  29.243  24.732  1.00  0.00    -0.013 A 
ATOM     38  H   UNL     1     -49.218  30.146  26.472  1.00  0.00     0.083 H 
ATOM     39  C   UNL     1     -47.339  29.888  23.760  1.00  0.00     0.065 A 
ATOM     40  N   UNL     1     -46.529  32.160  23.444  1.00  0.00    -0.218 NA
ATOM     41  C   UNL     1     -46.628  29.490  22.611  1.00  0.00     0.136 A 
ATOM     42  C   UNL     1     -45.889  31.662  22.384  1.00  0.00     0.120 A 
ATOM     43  N   UNL     1     -45.903  30.397  21.935  1.00  0.00    -0.219 NA
ATOM     44  H   UNL     1     -45.288  32.364  21.816  1.00  0.00     0.106 H 
BRANCH  37  45
ATOM     45  C   UNL     1     -48.529  27.776  24.776  1.00  0.00    -0.014 C 
ATOM     46  C   UNL     1     -47.338  26.823  24.923  1.00  0.00    -0.046 C 
ATOM     47  C   UNL     1     -49.393  27.419  25.989  1.00  0.00    -0.046 C 
ATOM     48  H   UNL     1     -49.057  27.530  23.847  1.00  0.00     0.035 H 
ATOM     49  C   UNL     1     -47.161  26.580  26.424  1.00  0.00    -0.053 C 
ATOM     50  H   UNL     1     -47.583  25.865  24.446  1.00  0.00     0.027 H 
ATOM     51  H   UNL     1     -46.419  27.184  24.452  1.00  0.00     0.027 H 
ATOM     52  C   UNL     1     -48.391  27.168  27.108  1.00  0.00    -0.053 C 
ATOM     53  H   UNL     1     -49.949  26.495  25.786  1.00  0.00     0.027 H 
ATOM     54  H   UNL     1     -50.118  28.193  26.260  1.00  0.00     0.027 H 
ATOM     55  H   UNL     1     -46.248  27.055  26.800  1.00  0.00     0.027 H 
ATOM     56  H   UNL     1     -47.073  25.506  26.627  1.00  0.00     0.027 H 
ATOM     57  H   UNL     1     -48.128  28.111  27.600  1.00  0.00     0.027 H 
ATOM     58  H   UNL     1     -48.793  26.499  27.875  1.00  0.00     0.027 H 
ENDBRANCH  37  45
BRANCH  41  59
ATOM     59  N   UNL     1     -46.633  28.203  22.088  1.00  0.00    -0.383 N 
ATOM     60  H   UNL     1     -47.196  28.101  21.256  1.00  0.00     0.158 HD
ATOM     61  H   UNL     1     -45.676  27.876  22.002  1.00  0.00     0.158 HD
ENDBRANCH  41  59
ENDBRANCH  31  34
ENDBRANCH   1  26
TORSDOF 8
ENDMDL
