MODEL 1
REMARK VINA RESULT:     -10.8      0.000      0.000
REMARK SMILES C[C@H]1COc2ccc(OCc3cncc(-n4cc(-c5ccn(C)n5)c5c(N)ncnc54)c3)cc2N1
REMARK SMILES IDX 11 1 12 2 13 3 14 4 15 5 32 6 10 10 9 13 8 14 2 15 3 16
REMARK SMILES IDX 35 17 4 19 34 22 5 24 33 25 6 26 7 28 1 31 16 35 17 36 31 37
REMARK SMILES IDX 18 38 25 40 30 41 26 42 29 43 28 44 19 46 20 47 24 48 21 49
REMARK SMILES IDX 22 51 23 53 27 57
REMARK H PARENT 12 7 14 8 32 9 10 11 10 12 2 18 3 20 3 21 35 23 33 27 6 29
REMARK H PARENT 7 30 1 32 1 33 1 34 17 39 29 45 20 50 21 52 23 54 23 55 23 56
REMARK H PARENT 27 58 27 59
REMARK Flexibility Score: inf
ROOT
ATOM      1  C   UNL     1     -46.812  36.238  28.215  1.00  0.00     0.010 A 
ATOM      2  C   UNL     1     -46.609  35.948  29.557  1.00  0.00     0.034 A 
ATOM      3  N   UNL     1     -45.920  36.741  30.401  1.00  0.00    -0.262 NA
ATOM      4  C   UNL     1     -45.390  37.882  29.887  1.00  0.00     0.051 A 
ATOM      5  C   UNL     1     -45.513  38.273  28.558  1.00  0.00     0.066 A 
ATOM      6  C   UNL     1     -46.237  37.417  27.716  1.00  0.00    -0.028 A 
ATOM      7  H   UNL     1     -47.007  35.044  30.010  1.00  0.00     0.084 H 
ATOM      8  H   UNL     1     -44.869  38.465  30.637  1.00  0.00     0.086 H 
ATOM      9  H   UNL     1     -46.371  37.630  26.659  1.00  0.00     0.065 H 
ENDROOT
BRANCH   1  10
ATOM     10  C   UNL     1     -47.573  35.275  27.341  1.00  0.00     0.115 C 
ATOM     11  H   UNL     1     -48.598  35.612  27.141  1.00  0.00     0.076 H 
ATOM     12  H   UNL     1     -47.667  34.334  27.897  1.00  0.00     0.076 H 
BRANCH  10  13
ATOM     13  O   UNL     1     -46.893  34.957  26.124  1.00  0.00    -0.489 OA
BRANCH  13  14
ATOM     14  C   UNL     1     -47.097  33.726  25.563  1.00  0.00     0.122 A 
ATOM     15  C   UNL     1     -46.132  29.897  22.803  1.00  0.00     0.058 C 
ATOM     16  C   UNL     1     -47.048  29.135  23.768  1.00  0.00     0.108 C 
ATOM     17  N   UNL     1     -45.559  31.079  23.467  1.00  0.00    -0.376 N 
ATOM     18  H   UNL     1     -46.722  30.246  21.945  1.00  0.00     0.056 H 
ATOM     19  O   UNL     1     -48.163  29.941  24.174  1.00  0.00    -0.489 OA
ATOM     20  H   UNL     1     -47.458  28.246  23.277  1.00  0.00     0.073 H 
ATOM     21  H   UNL     1     -46.510  28.798  24.663  1.00  0.00     0.073 H 
ATOM     22  C   UNL     1     -46.520  31.753  24.263  1.00  0.00     0.081 A 
ATOM     23  H   UNL     1     -44.758  30.853  24.056  1.00  0.00     0.161 HD
ATOM     24  C   UNL     1     -47.768  31.192  24.583  1.00  0.00     0.142 A 
ATOM     25  C   UNL     1     -46.187  33.013  24.779  1.00  0.00     0.007 A 
ATOM     26  C   UNL     1     -48.683  31.902  25.355  1.00  0.00    -0.014 A 
ATOM     27  H   UNL     1     -45.208  33.412  24.537  1.00  0.00     0.069 H 
ATOM     28  C   UNL     1     -48.345  33.163  25.847  1.00  0.00    -0.016 A 
ATOM     29  H   UNL     1     -49.652  31.468  25.589  1.00  0.00     0.066 H 
ATOM     30  H   UNL     1     -49.058  33.709  26.459  1.00  0.00     0.066 H 
BRANCH  15  31
ATOM     31  C   UNL     1     -45.003  29.010  22.293  1.00  0.00    -0.042 C 
ATOM     32  H   UNL     1     -44.179  28.958  23.014  1.00  0.00     0.025 H 
ATOM     33  H   UNL     1     -45.360  27.991  22.110  1.00  0.00     0.025 H 
ATOM     34  H   UNL     1     -44.596  29.401  21.354  1.00  0.00     0.025 H 
ENDBRANCH  15  31
ENDBRANCH  13  14
ENDBRANCH  10  13
ENDBRANCH   1  10
BRANCH   5  35
ATOM     35  N   UNL     1     -44.938  39.489  28.063  1.00  0.00    -0.299 N 
ATOM     36  C   UNL     1     -45.401  40.195  26.969  1.00  0.00     0.021 A 
ATOM     37  C   UNL     1     -43.836  40.190  28.563  1.00  0.00     0.150 A 
ATOM     38  C   UNL     1     -44.605  41.300  26.759  1.00  0.00     0.033 A 
ATOM     39  H   UNL     1     -46.264  39.881  26.399  1.00  0.00     0.083 H 
ATOM     40  C   UNL     1     -43.631  41.333  27.788  1.00  0.00     0.071 A 
ATOM     41  N   UNL     1     -43.079  39.833  29.620  1.00  0.00    -0.218 NA
ATOM     42  C   UNL     1     -42.592  42.190  28.191  1.00  0.00     0.137 A 
ATOM     43  C   UNL     1     -42.100  40.705  29.883  1.00  0.00     0.120 A 
ATOM     44  N   UNL     1     -41.828  41.851  29.244  1.00  0.00    -0.219 NA
ATOM     45  H   UNL     1     -41.451  40.461  30.719  1.00  0.00     0.106 H 
BRANCH  38  46
ATOM     46  C   UNL     1     -44.773  42.253  25.667  1.00  0.00     0.095 A 
ATOM     47  C   UNL     1     -44.009  42.283  24.481  1.00  0.00    -0.016 A 
ATOM     48  N   UNL     1     -45.739  43.178  25.662  1.00  0.00    -0.173 NA
ATOM     49  C   UNL     1     -44.546  43.311  23.742  1.00  0.00     0.025 A 
ATOM     50  H   UNL     1     -43.185  41.640  24.199  1.00  0.00     0.066 H 
ATOM     51  N   UNL     1     -45.574  43.810  24.486  1.00  0.00    -0.275 N 
ATOM     52  H   UNL     1     -44.293  43.709  22.768  1.00  0.00     0.084 H 
BRANCH  51  53
ATOM     53  C   UNL     1     -46.459  44.892  24.131  1.00  0.00     0.030 C 
ATOM     54  H   UNL     1     -45.917  45.834  24.254  1.00  0.00     0.048 H 
ATOM     55  H   UNL     1     -47.334  44.877  24.785  1.00  0.00     0.048 H 
ATOM     56  H   UNL     1     -46.768  44.758  23.091  1.00  0.00     0.048 H 
ENDBRANCH  51  53
ENDBRANCH  38  46
BRANCH  42  57
ATOM     57  N   UNL     1     -42.300  43.413  27.598  1.00  0.00    -0.383 N 
ATOM     58  H   UNL     1     -42.564  44.166  28.227  1.00  0.00     0.158 HD
ATOM     59  H   UNL     1     -42.649  43.502  26.652  1.00  0.00     0.158 HD
ENDBRANCH  42  57
ENDBRANCH   5  35
TORSDOF 8
ENDMDL
MODEL 2
REMARK VINA RESULT:     -10.4      1.906      2.844
REMARK SMILES C[C@H]1COc2ccc(OCc3cncc(-n4cc(-c5ccn(C)n5)c5c(N)ncnc54)c3)cc2N1
REMARK SMILES IDX 11 1 12 2 13 3 14 4 15 5 32 6 10 10 9 13 8 14 2 15 3 16
REMARK SMILES IDX 35 17 4 19 34 22 5 24 33 25 6 26 7 28 1 31 16 35 17 36 31 37
REMARK SMILES IDX 18 38 25 40 30 41 26 42 29 43 28 44 19 46 20 47 24 48 21 49
REMARK SMILES IDX 22 51 23 53 27 57
REMARK H PARENT 12 7 14 8 32 9 10 11 10 12 2 18 3 20 3 21 35 23 33 27 6 29
REMARK H PARENT 7 30 1 32 1 33 1 34 17 39 29 45 20 50 21 52 23 54 23 55 23 56
REMARK H PARENT 27 58 27 59
REMARK Flexibility Score: inf
ROOT
ATOM      1  C   UNL     1     -47.083  36.249  27.432  1.00  0.00     0.010 A 
ATOM      2  C   UNL     1     -46.275  35.922  28.511  1.00  0.00     0.034 A 
ATOM      3  N   UNL     1     -45.380  36.765  29.062  1.00  0.00    -0.262 NA
ATOM      4  C   UNL     1     -45.270  38.001  28.508  1.00  0.00     0.051 A 
ATOM      5  C   UNL     1     -46.013  38.440  27.417  1.00  0.00     0.066 A 
ATOM      6  C   UNL     1     -46.931  37.528  26.875  1.00  0.00    -0.028 A 
ATOM      7  H   UNL     1     -46.323  34.943  28.983  1.00  0.00     0.084 H 
ATOM      8  H   UNL     1     -44.543  38.617  29.023  1.00  0.00     0.086 H 
ATOM      9  H   UNL     1     -47.543  37.774  26.012  1.00  0.00     0.065 H 
ENDROOT
BRANCH   1  10
ATOM     10  C   UNL     1     -48.035  35.228  26.865  1.00  0.00     0.115 C 
ATOM     11  H   UNL     1     -48.237  35.389  25.799  1.00  0.00     0.076 H 
ATOM     12  H   UNL     1     -48.997  35.357  27.377  1.00  0.00     0.076 H 
BRANCH  10  13
ATOM     13  O   UNL     1     -47.628  33.878  27.110  1.00  0.00    -0.489 OA
BRANCH  13  14
ATOM     14  C   UNL     1     -47.689  32.980  26.080  1.00  0.00     0.122 A 
ATOM     15  C   UNL     1     -46.016  30.206  22.514  1.00  0.00     0.058 C 
ATOM     16  C   UNL     1     -47.275  29.364  22.754  1.00  0.00     0.108 C 
ATOM     17  N   UNL     1     -45.656  30.949  23.733  1.00  0.00    -0.376 N 
ATOM     18  H   UNL     1     -46.216  30.938  21.721  1.00  0.00     0.056 H 
ATOM     19  O   UNL     1     -48.405  30.194  23.061  1.00  0.00    -0.489 OA
ATOM     20  H   UNL     1     -47.529  28.799  21.852  1.00  0.00     0.073 H 
ATOM     21  H   UNL     1     -47.135  28.641  23.568  1.00  0.00     0.073 H 
ATOM     22  C   UNL     1     -46.799  31.493  24.373  1.00  0.00     0.081 A 
ATOM     23  H   UNL     1     -45.151  30.378  24.410  1.00  0.00     0.161 HD
ATOM     24  C   UNL     1     -48.110  31.123  24.029  1.00  0.00     0.142 A 
ATOM     25  C   UNL     1     -46.601  32.407  25.418  1.00  0.00     0.007 A 
ATOM     26  C   UNL     1     -49.199  31.699  24.678  1.00  0.00    -0.014 A 
ATOM     27  H   UNL     1     -45.578  32.656  25.680  1.00  0.00     0.069 H 
ATOM     28  C   UNL     1     -48.986  32.621  25.703  1.00  0.00    -0.016 A 
ATOM     29  H   UNL     1     -50.210  31.418  24.399  1.00  0.00     0.066 H 
ATOM     30  H   UNL     1     -49.839  33.059  26.215  1.00  0.00     0.066 H 
BRANCH  15  31
ATOM     31  C   UNL     1     -44.840  29.334  22.091  1.00  0.00    -0.042 C 
ATOM     32  H   UNL     1     -44.138  29.889  21.458  1.00  0.00     0.025 H 
ATOM     33  H   UNL     1     -44.292  28.966  22.965  1.00  0.00     0.025 H 
ATOM     34  H   UNL     1     -45.186  28.467  21.518  1.00  0.00     0.025 H 
ENDBRANCH  15  31
ENDBRANCH  13  14
ENDBRANCH  10  13
ENDBRANCH   1  10
BRANCH   5  35
ATOM     35  N   UNL     1     -45.863  39.755  26.870  1.00  0.00    -0.299 N 
ATOM     36  C   UNL     1     -44.691  40.262  26.338  1.00  0.00     0.021 A 
ATOM     37  C   UNL     1     -46.828  40.760  26.758  1.00  0.00     0.150 A 
ATOM     38  C   UNL     1     -44.893  41.560  25.923  1.00  0.00     0.033 A 
ATOM     39  H   UNL     1     -43.782  39.681  26.281  1.00  0.00     0.083 H 
ATOM     40  C   UNL     1     -46.257  41.878  26.146  1.00  0.00     0.071 A 
ATOM     41  N   UNL     1     -48.108  40.684  27.173  1.00  0.00    -0.218 NA
ATOM     42  C   UNL     1     -47.110  42.968  25.901  1.00  0.00     0.137 A 
ATOM     43  C   UNL     1     -48.810  41.793  26.920  1.00  0.00     0.120 A 
ATOM     44  N   UNL     1     -48.390  42.908  26.306  1.00  0.00    -0.219 NA
ATOM     45  H   UNL     1     -49.847  41.790  27.245  1.00  0.00     0.106 H 
BRANCH  38  46
ATOM     46  C   UNL     1     -43.866  42.421  25.348  1.00  0.00     0.095 A 
ATOM     47  C   UNL     1     -42.681  42.829  25.997  1.00  0.00    -0.016 A 
ATOM     48  N   UNL     1     -43.925  42.868  24.089  1.00  0.00    -0.173 NA
ATOM     49  C   UNL     1     -42.011  43.587  25.065  1.00  0.00     0.025 A 
ATOM     50  H   UNL     1     -42.356  42.597  27.002  1.00  0.00     0.066 H 
ATOM     51  N   UNL     1     -42.790  43.577  23.946  1.00  0.00    -0.275 N 
ATOM     52  H   UNL     1     -41.065  44.108  25.104  1.00  0.00     0.084 H 
BRANCH  51  53
ATOM     53  C   UNL     1     -42.510  44.221  22.686  1.00  0.00     0.030 C 
ATOM     54  H   UNL     1     -42.911  43.597  21.883  1.00  0.00     0.048 H 
ATOM     55  H   UNL     1     -41.430  44.334  22.567  1.00  0.00     0.048 H 
ATOM     56  H   UNL     1     -42.990  45.203  22.686  1.00  0.00     0.048 H 
ENDBRANCH  51  53
ENDBRANCH  38  46
BRANCH  42  57
ATOM     57  N   UNL     1     -46.742  44.124  25.222  1.00  0.00    -0.383 N 
ATOM     58  H   UNL     1     -46.174  43.878  24.417  1.00  0.00     0.158 HD
ATOM     59  H   UNL     1     -46.353  44.843  25.819  1.00  0.00     0.158 HD
ENDBRANCH  42  57
ENDBRANCH   5  35
TORSDOF 8
ENDMDL
MODEL 3
REMARK VINA RESULT:     -10.2      1.564      2.022
REMARK SMILES C[C@H]1COc2ccc(OCc3cncc(-n4cc(-c5ccn(C)n5)c5c(N)ncnc54)c3)cc2N1
REMARK SMILES IDX 11 1 12 2 13 3 14 4 15 5 32 6 10 10 9 13 8 14 2 15 3 16
REMARK SMILES IDX 35 17 4 19 34 22 5 24 33 25 6 26 7 28 1 31 16 35 17 36 31 37
REMARK SMILES IDX 18 38 25 40 30 41 26 42 29 43 28 44 19 46 20 47 24 48 21 49
REMARK SMILES IDX 22 51 23 53 27 57
REMARK H PARENT 12 7 14 8 32 9 10 11 10 12 2 18 3 20 3 21 35 23 33 27 6 29
REMARK H PARENT 7 30 1 32 1 33 1 34 17 39 29 45 20 50 21 52 23 54 23 55 23 56
REMARK H PARENT 27 58 27 59
REMARK Flexibility Score: inf
ROOT
ATOM      1  C   UNL     1     -48.820  36.160  27.296  1.00  0.00     0.010 A 
ATOM      2  C   UNL     1     -49.990  36.727  27.781  1.00  0.00     0.034 A 
ATOM      3  N   UNL     1     -50.088  38.002  28.204  1.00  0.00    -0.262 NA
ATOM      4  C   UNL     1     -48.960  38.759  28.156  1.00  0.00     0.051 A 
ATOM      5  C   UNL     1     -47.727  38.301  27.705  1.00  0.00     0.066 A 
ATOM      6  C   UNL     1     -47.672  36.966  27.276  1.00  0.00    -0.028 A 
ATOM      7  H   UNL     1     -50.915  36.158  27.844  1.00  0.00     0.084 H 
ATOM      8  H   UNL     1     -49.133  39.773  28.497  1.00  0.00     0.086 H 
ATOM      9  H   UNL     1     -46.749  36.514  26.924  1.00  0.00     0.065 H 
ENDROOT
BRANCH   1  10
ATOM     10  C   UNL     1     -48.801  34.714  26.872  1.00  0.00     0.115 C 
ATOM     11  H   UNL     1     -49.710  34.426  26.327  1.00  0.00     0.076 H 
ATOM     12  H   UNL     1     -48.790  34.105  27.784  1.00  0.00     0.076 H 
BRANCH  10  13
ATOM     13  O   UNL     1     -47.629  34.356  26.135  1.00  0.00    -0.489 OA
BRANCH  13  14
ATOM     14  C   UNL     1     -47.600  33.144  25.501  1.00  0.00     0.122 A 
ATOM     15  C   UNL     1     -45.890  29.701  22.597  1.00  0.00     0.058 C 
ATOM     16  C   UNL     1     -46.703  28.741  23.474  1.00  0.00     0.108 C 
ATOM     17  N   UNL     1     -45.552  30.920  23.350  1.00  0.00    -0.376 N 
ATOM     18  H   UNL     1     -46.494  29.998  21.730  1.00  0.00     0.056 H 
ATOM     19  O   UNL     1     -47.954  29.325  23.864  1.00  0.00    -0.489 OA
ATOM     20  H   UNL     1     -46.936  27.827  22.916  1.00  0.00     0.073 H 
ATOM     21  H   UNL     1     -46.153  28.445  24.376  1.00  0.00     0.073 H 
ATOM     22  C   UNL     1     -46.645  31.376  24.130  1.00  0.00     0.081 A 
ATOM     23  H   UNL     1     -44.749  30.795  23.966  1.00  0.00     0.161 HD
ATOM     24  C   UNL     1     -47.793  30.597  24.357  1.00  0.00     0.142 A 
ATOM     25  C   UNL     1     -46.551  32.641  24.728  1.00  0.00     0.007 A 
ATOM     26  C   UNL     1     -48.846  31.098  25.118  1.00  0.00    -0.014 A 
ATOM     27  H   UNL     1     -45.644  33.210  24.557  1.00  0.00     0.069 H 
ATOM     28  C   UNL     1     -48.745  32.366  25.691  1.00  0.00    -0.016 A 
ATOM     29  H   UNL     1     -49.736  30.496  25.280  1.00  0.00     0.066 H 
ATOM     30  H   UNL     1     -49.565  32.748  26.294  1.00  0.00     0.066 H 
BRANCH  15  31
ATOM     31  C   UNL     1     -44.607  29.045  22.100  1.00  0.00    -0.042 C 
ATOM     32  H   UNL     1     -43.885  28.912  22.913  1.00  0.00     0.025 H 
ATOM     33  H   UNL     1     -44.815  28.062  21.665  1.00  0.00     0.025 H 
ATOM     34  H   UNL     1     -44.129  29.663  21.332  1.00  0.00     0.025 H 
ENDBRANCH  15  31
ENDBRANCH  13  14
ENDBRANCH  10  13
ENDBRANCH   1  10
BRANCH   5  35
ATOM     35  N   UNL     1     -46.566  39.139  27.671  1.00  0.00    -0.299 N 
ATOM     36  C   UNL     1     -46.355  40.164  26.767  1.00  0.00     0.021 A 
ATOM     37  C   UNL     1     -45.449  39.103  28.511  1.00  0.00     0.150 A 
ATOM     38  C   UNL     1     -45.130  40.748  27.004  1.00  0.00     0.033 A 
ATOM     39  H   UNL     1     -47.079  40.424  26.008  1.00  0.00     0.083 H 
ATOM     40  C   UNL     1     -44.559  40.112  28.135  1.00  0.00     0.071 A 
ATOM     41  N   UNL     1     -45.242  38.237  29.524  1.00  0.00    -0.218 NA
ATOM     42  C   UNL     1     -43.401  40.256  28.918  1.00  0.00     0.137 A 
ATOM     43  C   UNL     1     -44.091  38.449  30.171  1.00  0.00     0.120 A 
ATOM     44  N   UNL     1     -43.181  39.403  29.934  1.00  0.00    -0.219 NA
ATOM     45  H   UNL     1     -43.870  37.772  30.991  1.00  0.00     0.106 H 
BRANCH  38  46
ATOM     46  C   UNL     1     -44.559  41.836  26.218  1.00  0.00     0.095 A 
ATOM     47  C   UNL     1     -44.200  41.761  24.855  1.00  0.00    -0.016 A 
ATOM     48  N   UNL     1     -44.374  43.063  26.716  1.00  0.00    -0.173 NA
ATOM     49  C   UNL     1     -43.750  43.022  24.540  1.00  0.00     0.025 A 
ATOM     50  H   UNL     1     -44.265  40.909  24.192  1.00  0.00     0.066 H 
ATOM     51  N   UNL     1     -43.878  43.761  25.679  1.00  0.00    -0.275 N 
ATOM     52  H   UNL     1     -43.372  43.444  23.619  1.00  0.00     0.084 H 
BRANCH  51  53
ATOM     53  C   UNL     1     -43.551  45.155  25.852  1.00  0.00     0.030 C 
ATOM     54  H   UNL     1     -43.599  45.390  26.919  1.00  0.00     0.048 H 
ATOM     55  H   UNL     1     -44.268  45.768  25.302  1.00  0.00     0.048 H 
ATOM     56  H   UNL     1     -42.542  45.323  25.466  1.00  0.00     0.048 H 
ENDBRANCH  51  53
ENDBRANCH  38  46
BRANCH  42  57
ATOM     57  N   UNL     1     -42.453  41.258  28.751  1.00  0.00    -0.383 N 
ATOM     58  H   UNL     1     -42.659  42.028  29.380  1.00  0.00     0.158 HD
ATOM     59  H   UNL     1     -42.302  41.521  27.785  1.00  0.00     0.158 HD
ENDBRANCH  42  57
ENDBRANCH   5  35
TORSDOF 8
ENDMDL
MODEL 4
REMARK VINA RESULT:     -10.1      2.150      3.072
REMARK SMILES C[C@H]1COc2ccc(OCc3cncc(-n4cc(-c5ccn(C)n5)c5c(N)ncnc54)c3)cc2N1
REMARK SMILES IDX 11 1 12 2 13 3 14 4 15 5 32 6 10 10 9 13 8 14 2 15 3 16
REMARK SMILES IDX 35 17 4 19 34 22 5 24 33 25 6 26 7 28 1 31 16 35 17 36 31 37
REMARK SMILES IDX 18 38 25 40 30 41 26 42 29 43 28 44 19 46 20 47 24 48 21 49
REMARK SMILES IDX 22 51 23 53 27 57
REMARK H PARENT 12 7 14 8 32 9 10 11 10 12 2 18 3 20 3 21 35 23 33 27 6 29
REMARK H PARENT 7 30 1 32 1 33 1 34 17 39 29 45 20 50 21 52 23 54 23 55 23 56
REMARK H PARENT 27 58 27 59
REMARK Flexibility Score: inf
ROOT
ATOM      1  C   UNL     1     -47.411  34.624  26.457  1.00  0.00     0.010 A 
ATOM      2  C   UNL     1     -48.716  34.782  26.902  1.00  0.00     0.034 A 
ATOM      3  N   UNL     1     -49.189  35.914  27.459  1.00  0.00    -0.262 NA
ATOM      4  C   UNL     1     -48.317  36.948  27.595  1.00  0.00     0.051 A 
ATOM      5  C   UNL     1     -46.984  36.906  27.202  1.00  0.00     0.066 A 
ATOM      6  C   UNL     1     -46.536  35.707  26.628  1.00  0.00    -0.028 A 
ATOM      7  H   UNL     1     -49.447  33.980  26.820  1.00  0.00     0.084 H 
ATOM      8  H   UNL     1     -48.784  37.821  28.035  1.00  0.00     0.086 H 
ATOM      9  H   UNL     1     -45.507  35.574  26.307  1.00  0.00     0.065 H 
ENDROOT
BRANCH   1  10
ATOM     10  C   UNL     1     -46.967  33.308  25.872  1.00  0.00     0.115 C 
ATOM     11  H   UNL     1     -47.010  32.489  26.602  1.00  0.00     0.076 H 
ATOM     12  H   UNL     1     -45.910  33.412  25.598  1.00  0.00     0.076 H 
BRANCH  10  13
ATOM     13  O   UNL     1     -47.662  32.960  24.672  1.00  0.00    -0.489 OA
BRANCH  13  14
ATOM     14  C   UNL     1     -48.296  31.749  24.611  1.00  0.00     0.122 A 
ATOM     15  C   UNL     1     -48.787  26.977  25.047  1.00  0.00     0.058 C 
ATOM     16  C   UNL     1     -50.287  27.273  25.164  1.00  0.00     0.108 C 
ATOM     17  N   UNL     1     -48.000  28.149  25.460  1.00  0.00    -0.376 N 
ATOM     18  H   UNL     1     -48.542  26.759  24.000  1.00  0.00     0.056 H 
ATOM     19  O   UNL     1     -50.676  28.340  24.288  1.00  0.00    -0.489 OA
ATOM     20  H   UNL     1     -50.870  26.392  24.874  1.00  0.00     0.073 H 
ATOM     21  H   UNL     1     -50.575  27.535  26.190  1.00  0.00     0.073 H 
ATOM     22  C   UNL     1     -48.556  29.357  24.965  1.00  0.00     0.081 A 
ATOM     23  H   UNL     1     -47.910  28.230  26.472  1.00  0.00     0.161 HD
ATOM     24  C   UNL     1     -49.840  29.425  24.398  1.00  0.00     0.142 A 
ATOM     25  C   UNL     1     -47.802  30.533  25.087  1.00  0.00     0.007 A 
ATOM     26  C   UNL     1     -50.333  30.632  23.912  1.00  0.00    -0.014 A 
ATOM     27  H   UNL     1     -46.825  30.456  25.551  1.00  0.00     0.069 H 
ATOM     28  C   UNL     1     -49.564  31.791  24.024  1.00  0.00    -0.016 A 
ATOM     29  H   UNL     1     -51.322  30.675  23.463  1.00  0.00     0.066 H 
ATOM     30  H   UNL     1     -49.958  32.733  23.654  1.00  0.00     0.066 H 
BRANCH  15  31
ATOM     31  C   UNL     1     -48.392  25.779  25.903  1.00  0.00    -0.042 C 
ATOM     32  H   UNL     1     -48.436  24.846  25.329  1.00  0.00     0.025 H 
ATOM     33  H   UNL     1     -47.374  25.894  26.288  1.00  0.00     0.025 H 
ATOM     34  H   UNL     1     -49.068  25.672  26.758  1.00  0.00     0.025 H 
ENDBRANCH  15  31
ENDBRANCH  13  14
ENDBRANCH  10  13
ENDBRANCH   1  10
BRANCH   5  35
ATOM     35  N   UNL     1     -46.104  38.025  27.364  1.00  0.00    -0.299 N 
ATOM     36  C   UNL     1     -45.991  39.078  26.476  1.00  0.00     0.021 A 
ATOM     37  C   UNL     1     -45.214  38.280  28.412  1.00  0.00     0.150 A 
ATOM     38  C   UNL     1     -45.039  39.966  26.928  1.00  0.00     0.033 A 
ATOM     39  H   UNL     1     -46.585  39.144  25.576  1.00  0.00     0.083 H 
ATOM     40  C   UNL     1     -44.565  39.494  28.177  1.00  0.00     0.071 A 
ATOM     41  N   UNL     1     -45.000  37.490  29.484  1.00  0.00    -0.218 NA
ATOM     42  C   UNL     1     -43.673  39.935  29.170  1.00  0.00     0.137 A 
ATOM     43  C   UNL     1     -44.103  37.995  30.338  1.00  0.00     0.120 A 
ATOM     44  N   UNL     1     -43.448  39.160  30.246  1.00  0.00    -0.219 NA
ATOM     45  H   UNL     1     -43.884  37.393  31.215  1.00  0.00     0.106 H 
BRANCH  38  46
ATOM     46  C   UNL     1     -44.626  41.176  26.224  1.00  0.00     0.095 A 
ATOM     47  C   UNL     1     -45.494  42.097  25.600  1.00  0.00    -0.016 A 
ATOM     48  N   UNL     1     -43.349  41.568  26.158  1.00  0.00    -0.173 NA
ATOM     49  C   UNL     1     -44.669  43.084  25.112  1.00  0.00     0.025 A 
ATOM     50  H   UNL     1     -46.572  42.054  25.522  1.00  0.00     0.066 H 
ATOM     51  N   UNL     1     -43.403  42.725  25.473  1.00  0.00    -0.275 N 
ATOM     52  H   UNL     1     -44.876  43.992  24.563  1.00  0.00     0.084 H 
BRANCH  51  53
ATOM     53  C   UNL     1     -42.185  43.448  25.204  1.00  0.00     0.030 C 
ATOM     54  H   UNL     1     -41.631  43.550  26.141  1.00  0.00     0.048 H 
ATOM     55  H   UNL     1     -42.427  44.435  24.803  1.00  0.00     0.048 H 
ATOM     56  H   UNL     1     -41.602  42.882  24.472  1.00  0.00     0.048 H 
ENDBRANCH  51  53
ENDBRANCH  38  46
BRANCH  42  57
ATOM     57  N   UNL     1     -43.009  41.156  29.152  1.00  0.00    -0.383 N 
ATOM     58  H   UNL     1     -43.107  41.581  28.235  1.00  0.00     0.158 HD
ATOM     59  H   UNL     1     -42.062  41.111  29.507  1.00  0.00     0.158 HD
ENDBRANCH  42  57
ENDBRANCH   5  35
TORSDOF 8
ENDMDL
MODEL 5
REMARK VINA RESULT:     -10.1      1.689      2.220
REMARK SMILES C[C@H]1COc2ccc(OCc3cncc(-n4cc(-c5ccn(C)n5)c5c(N)ncnc54)c3)cc2N1
REMARK SMILES IDX 11 1 12 2 13 3 14 4 15 5 32 6 10 10 9 13 8 14 2 15 3 16
REMARK SMILES IDX 35 17 4 19 34 22 5 24 33 25 6 26 7 28 1 31 16 35 17 36 31 37
REMARK SMILES IDX 18 38 25 40 30 41 26 42 29 43 28 44 19 46 20 47 24 48 21 49
REMARK SMILES IDX 22 51 23 53 27 57
REMARK H PARENT 12 7 14 8 32 9 10 11 10 12 2 18 3 20 3 21 35 23 33 27 6 29
REMARK H PARENT 7 30 1 32 1 33 1 34 17 39 29 45 20 50 21 52 23 54 23 55 23 56
REMARK H PARENT 27 58 27 59
REMARK Flexibility Score: inf
ROOT
ATOM      1  C   UNL     1     -47.063  36.123  26.938  1.00  0.00     0.010 A 
ATOM      2  C   UNL     1     -48.336  36.436  27.393  1.00  0.00     0.034 A 
ATOM      3  N   UNL     1     -48.687  37.647  27.868  1.00  0.00    -0.262 NA
ATOM      4  C   UNL     1     -47.721  38.602  27.907  1.00  0.00     0.051 A 
ATOM      5  C   UNL     1     -46.408  38.405  27.495  1.00  0.00     0.066 A 
ATOM      6  C   UNL     1     -46.087  37.129  27.008  1.00  0.00    -0.028 A 
ATOM      7  H   UNL     1     -49.139  35.703  27.387  1.00  0.00     0.084 H 
ATOM      8  H   UNL     1     -48.094  39.546  28.287  1.00  0.00     0.086 H 
ATOM      9  H   UNL     1     -45.083  36.876  26.680  1.00  0.00     0.065 H 
ENDROOT
BRANCH   1  10
ATOM     10  C   UNL     1     -46.757  34.731  26.450  1.00  0.00     0.115 C 
ATOM     11  H   UNL     1     -46.094  34.184  27.132  1.00  0.00     0.076 H 
ATOM     12  H   UNL     1     -46.206  34.829  25.507  1.00  0.00     0.076 H 
BRANCH  10  13
ATOM     13  O   UNL     1     -47.928  33.966  26.153  1.00  0.00    -0.489 OA
BRANCH  13  14
ATOM     14  C   UNL     1     -47.781  32.769  25.507  1.00  0.00     0.122 A 
ATOM     15  C   UNL     1     -48.763  28.187  24.387  1.00  0.00     0.058 C 
ATOM     16  C   UNL     1     -48.072  28.502  23.055  1.00  0.00     0.108 C 
ATOM     17  N   UNL     1     -49.293  29.420  24.993  1.00  0.00    -0.376 N 
ATOM     18  H   UNL     1     -48.030  27.759  25.082  1.00  0.00     0.056 H 
ATOM     19  O   UNL     1     -46.944  29.367  23.245  1.00  0.00    -0.489 OA
ATOM     20  H   UNL     1     -47.696  27.581  22.598  1.00  0.00     0.073 H 
ATOM     21  H   UNL     1     -48.759  28.969  22.337  1.00  0.00     0.073 H 
ATOM     22  C   UNL     1     -48.382  30.500  24.869  1.00  0.00     0.081 A 
ATOM     23  H   UNL     1     -50.186  29.706  24.592  1.00  0.00     0.161 HD
ATOM     24  C   UNL     1     -47.255  30.450  24.030  1.00  0.00     0.142 A 
ATOM     25  C   UNL     1     -48.647  31.676  25.586  1.00  0.00     0.007 A 
ATOM     26  C   UNL     1     -46.384  31.533  23.957  1.00  0.00    -0.014 A 
ATOM     27  H   UNL     1     -49.537  31.696  26.206  1.00  0.00     0.069 H 
ATOM     28  C   UNL     1     -46.650  32.689  24.690  1.00  0.00    -0.016 A 
ATOM     29  H   UNL     1     -45.507  31.483  23.316  1.00  0.00     0.066 H 
ATOM     30  H   UNL     1     -45.973  33.536  24.621  1.00  0.00     0.066 H 
BRANCH  15  31
ATOM     31  C   UNL     1     -49.901  27.190  24.199  1.00  0.00    -0.042 C 
ATOM     32  H   UNL     1     -49.894  26.762  23.190  1.00  0.00     0.025 H 
ATOM     33  H   UNL     1     -49.822  26.369  24.918  1.00  0.00     0.025 H 
ATOM     34  H   UNL     1     -50.871  27.677  24.344  1.00  0.00     0.025 H 
ENDBRANCH  15  31
ENDBRANCH  13  14
ENDBRANCH  10  13
ENDBRANCH   1  10
BRANCH   5  35
ATOM     35  N   UNL     1     -45.425  39.445  27.553  1.00  0.00    -0.299 N 
ATOM     36  C   UNL     1     -45.344  40.509  26.673  1.00  0.00     0.021 A 
ATOM     37  C   UNL     1     -44.385  39.601  28.475  1.00  0.00     0.150 A 
ATOM     38  C   UNL     1     -44.270  41.306  27.006  1.00  0.00     0.033 A 
ATOM     39  H   UNL     1     -46.046  40.645  25.863  1.00  0.00     0.083 H 
ATOM     40  C   UNL     1     -43.675  40.765  28.173  1.00  0.00     0.071 A 
ATOM     41  N   UNL     1     -44.095  38.769  29.496  1.00  0.00    -0.218 NA
ATOM     42  C   UNL     1     -42.624  41.107  29.042  1.00  0.00     0.137 A 
ATOM     43  C   UNL     1     -43.054  39.179  30.228  1.00  0.00     0.120 A 
ATOM     44  N   UNL     1     -42.323  40.290  30.066  1.00  0.00    -0.219 NA
ATOM     45  H   UNL     1     -42.770  38.538  31.059  1.00  0.00     0.106 H 
BRANCH  38  46
ATOM     46  C   UNL     1     -43.857  42.496  26.271  1.00  0.00     0.095 A 
ATOM     47  C   UNL     1     -42.611  42.674  25.633  1.00  0.00    -0.016 A 
ATOM     48  N   UNL     1     -44.671  43.539  26.075  1.00  0.00    -0.173 NA
ATOM     49  C   UNL     1     -42.689  43.914  25.045  1.00  0.00     0.025 A 
ATOM     50  H   UNL     1     -41.773  41.989  25.599  1.00  0.00     0.066 H 
ATOM     51  N   UNL     1     -43.935  44.387  25.333  1.00  0.00    -0.275 N 
ATOM     52  H   UNL     1     -41.982  44.478  24.451  1.00  0.00     0.084 H 
BRANCH  51  53
ATOM     53  C   UNL     1     -44.503  45.648  24.924  1.00  0.00     0.030 C 
ATOM     54  H   UNL     1     -44.383  45.745  23.842  1.00  0.00     0.048 H 
ATOM     55  H   UNL     1     -43.984  46.464  25.432  1.00  0.00     0.048 H 
ATOM     56  H   UNL     1     -45.562  45.654  25.196  1.00  0.00     0.048 H 
ENDBRANCH  51  53
ENDBRANCH  38  46
BRANCH  42  57
ATOM     57  N   UNL     1     -41.870  42.271  28.952  1.00  0.00    -0.383 N 
ATOM     58  H   UNL     1     -42.305  42.907  28.291  1.00  0.00     0.158 HD
ATOM     59  H   UNL     1     -40.882  42.108  28.805  1.00  0.00     0.158 HD
ENDBRANCH  42  57
ENDBRANCH   5  35
TORSDOF 8
ENDMDL
MODEL 6
REMARK VINA RESULT:     -10.0      3.314     12.026
REMARK SMILES C[C@H]1COc2ccc(OCc3cncc(-n4cc(-c5ccn(C)n5)c5c(N)ncnc54)c3)cc2N1
REMARK SMILES IDX 11 1 12 2 13 3 14 4 15 5 32 6 10 10 9 13 8 14 2 15 3 16
REMARK SMILES IDX 35 17 4 19 34 22 5 24 33 25 6 26 7 28 1 31 16 35 17 36 31 37
REMARK SMILES IDX 18 38 25 40 30 41 26 42 29 43 28 44 19 46 20 47 24 48 21 49
REMARK SMILES IDX 22 51 23 53 27 57
REMARK H PARENT 12 7 14 8 32 9 10 11 10 12 2 18 3 20 3 21 35 23 33 27 6 29
REMARK H PARENT 7 30 1 32 1 33 1 34 17 39 29 45 20 50 21 52 23 54 23 55 23 56
REMARK H PARENT 27 58 27 59
REMARK Flexibility Score: inf
ROOT
ATOM      1  C   UNL     1     -48.024  34.681  26.546  1.00  0.00     0.010 A 
ATOM      2  C   UNL     1     -46.718  34.886  26.125  1.00  0.00     0.034 A 
ATOM      3  N   UNL     1     -46.008  33.989  25.412  1.00  0.00    -0.262 NA
ATOM      4  C   UNL     1     -46.622  32.816  25.106  1.00  0.00     0.051 A 
ATOM      5  C   UNL     1     -47.919  32.488  25.483  1.00  0.00     0.066 A 
ATOM      6  C   UNL     1     -48.619  33.451  26.225  1.00  0.00    -0.028 A 
ATOM      7  H   UNL     1     -46.184  35.806  26.353  1.00  0.00     0.084 H 
ATOM      8  H   UNL     1     -45.986  32.164  24.519  1.00  0.00     0.086 H 
ATOM      9  H   UNL     1     -49.632  33.279  26.579  1.00  0.00     0.065 H 
ENDROOT
BRANCH   1  10
ATOM     10  C   UNL     1     -48.727  35.732  27.364  1.00  0.00     0.115 C 
ATOM     11  H   UNL     1     -49.735  35.422  27.668  1.00  0.00     0.076 H 
ATOM     12  H   UNL     1     -48.862  36.610  26.722  1.00  0.00     0.076 H 
BRANCH  10  13
ATOM     13  O   UNL     1     -47.967  36.172  28.493  1.00  0.00    -0.489 OA
BRANCH  13  14
ATOM     14  C   UNL     1     -47.160  37.268  28.350  1.00  0.00     0.122 A 
ATOM     15  C   UNL     1     -43.517  40.252  29.366  1.00  0.00     0.058 C 
ATOM     16  C   UNL     1     -43.625  40.674  27.896  1.00  0.00     0.108 C 
ATOM     17  N   UNL     1     -44.046  38.891  29.548  1.00  0.00    -0.376 N 
ATOM     18  H   UNL     1     -44.119  40.932  29.983  1.00  0.00     0.056 H 
ATOM     19  O   UNL     1     -44.993  40.720  27.468  1.00  0.00    -0.489 OA
ATOM     20  H   UNL     1     -43.213  41.680  27.761  1.00  0.00     0.073 H 
ATOM     21  H   UNL     1     -43.069  39.999  27.234  1.00  0.00     0.073 H 
ATOM     22  C   UNL     1     -45.237  38.686  28.806  1.00  0.00     0.081 A 
ATOM     23  H   UNL     1     -43.377  38.167  29.286  1.00  0.00     0.161 HD
ATOM     24  C   UNL     1     -45.678  39.581  27.817  1.00  0.00     0.142 A 
ATOM     25  C   UNL     1     -45.976  37.519  29.047  1.00  0.00     0.007 A 
ATOM     26  C   UNL     1     -46.863  39.342  27.127  1.00  0.00    -0.014 A 
ATOM     27  H   UNL     1     -45.599  36.832  29.798  1.00  0.00     0.069 H 
ATOM     28  C   UNL     1     -47.598  38.186  27.391  1.00  0.00    -0.016 A 
ATOM     29  H   UNL     1     -47.206  40.045  26.372  1.00  0.00     0.066 H 
ATOM     30  H   UNL     1     -48.516  37.997  26.842  1.00  0.00     0.066 H 
BRANCH  15  31
ATOM     31  C   UNL     1     -42.072  40.299  29.851  1.00  0.00    -0.042 C 
ATOM     32  H   UNL     1     -42.013  40.198  30.940  1.00  0.00     0.025 H 
ATOM     33  H   UNL     1     -41.483  39.493  29.401  1.00  0.00     0.025 H 
ATOM     34  H   UNL     1     -41.604  41.253  29.582  1.00  0.00     0.025 H 
ENDBRANCH  15  31
ENDBRANCH  13  14
ENDBRANCH  10  13
ENDBRANCH   1  10
BRANCH   5  35
ATOM     35  N   UNL     1     -48.524  31.237  25.134  1.00  0.00    -0.299 N 
ATOM     36  C   UNL     1     -48.360  30.056  25.833  1.00  0.00     0.021 A 
ATOM     37  C   UNL     1     -49.374  30.959  24.059  1.00  0.00     0.150 A 
ATOM     38  C   UNL     1     -49.062  29.047  25.211  1.00  0.00     0.033 A 
ATOM     39  H   UNL     1     -47.759  29.992  26.729  1.00  0.00     0.083 H 
ATOM     40  C   UNL     1     -49.745  29.613  24.105  1.00  0.00     0.071 A 
ATOM     41  N   UNL     1     -49.778  31.834  23.117  1.00  0.00    -0.218 NA
ATOM     42  C   UNL     1     -50.652  29.175  23.124  1.00  0.00     0.137 A 
ATOM     43  C   UNL     1     -50.607  31.293  22.217  1.00  0.00     0.120 A 
ATOM     44  N   UNL     1     -51.067  30.035  22.178  1.00  0.00    -0.219 NA
ATOM     45  H   UNL     1     -50.955  31.952  21.428  1.00  0.00     0.106 H 
BRANCH  38  46
ATOM     46  C   UNL     1     -49.087  27.655  25.649  1.00  0.00     0.095 A 
ATOM     47  C   UNL     1     -50.249  26.884  25.864  1.00  0.00    -0.016 A 
ATOM     48  N   UNL     1     -47.972  26.940  25.832  1.00  0.00    -0.173 NA
ATOM     49  C   UNL     1     -49.785  25.640  26.223  1.00  0.00     0.025 A 
ATOM     50  H   UNL     1     -51.282  27.190  25.765  1.00  0.00     0.066 H 
ATOM     51  N   UNL     1     -48.424  25.723  26.185  1.00  0.00    -0.275 N 
ATOM     52  H   UNL     1     -50.299  24.725  26.483  1.00  0.00     0.084 H 
BRANCH  51  53
ATOM     53  C   UNL     1     -47.481  24.670  26.468  1.00  0.00     0.030 C 
ATOM     54  H   UNL     1     -48.040  23.754  26.679  1.00  0.00     0.048 H 
ATOM     55  H   UNL     1     -46.876  24.946  27.335  1.00  0.00     0.048 H 
ATOM     56  H   UNL     1     -46.840  24.537  25.593  1.00  0.00     0.048 H 
ENDBRANCH  51  53
ENDBRANCH  38  46
BRANCH  42  57
ATOM     57  N   UNL     1     -51.201  27.899  23.069  1.00  0.00    -0.383 N 
ATOM     58  H   UNL     1     -50.610  27.252  23.581  1.00  0.00     0.158 HD
ATOM     59  H   UNL     1     -51.452  27.603  22.133  1.00  0.00     0.158 HD
ENDBRANCH  42  57
ENDBRANCH   5  35
TORSDOF 8
ENDMDL
MODEL 7
REMARK VINA RESULT:     -10.0      2.925     11.453
REMARK SMILES C[C@H]1COc2ccc(OCc3cncc(-n4cc(-c5ccn(C)n5)c5c(N)ncnc54)c3)cc2N1
REMARK SMILES IDX 11 1 12 2 13 3 14 4 15 5 32 6 10 10 9 13 8 14 2 15 3 16
REMARK SMILES IDX 35 17 4 19 34 22 5 24 33 25 6 26 7 28 1 31 16 35 17 36 31 37
REMARK SMILES IDX 18 38 25 40 30 41 26 42 29 43 28 44 19 46 20 47 24 48 21 49
REMARK SMILES IDX 22 51 23 53 27 57
REMARK H PARENT 12 7 14 8 32 9 10 11 10 12 2 18 3 20 3 21 35 23 33 27 6 29
REMARK H PARENT 7 30 1 32 1 33 1 34 17 39 29 45 20 50 21 52 23 54 23 55 23 56
REMARK H PARENT 27 58 27 59
REMARK Flexibility Score: inf
ROOT
ATOM      1  C   UNL     1     -46.764  35.062  26.810  1.00  0.00     0.010 A 
ATOM      2  C   UNL     1     -46.152  34.634  27.980  1.00  0.00     0.034 A 
ATOM      3  N   UNL     1     -45.965  33.338  28.299  1.00  0.00    -0.262 NA
ATOM      4  C   UNL     1     -46.418  32.410  27.416  1.00  0.00     0.051 A 
ATOM      5  C   UNL     1     -47.059  32.714  26.220  1.00  0.00     0.066 A 
ATOM      6  C   UNL     1     -47.233  34.076  25.929  1.00  0.00    -0.028 A 
ATOM      7  H   UNL     1     -45.781  35.339  28.719  1.00  0.00     0.084 H 
ATOM      8  H   UNL     1     -46.211  31.399  27.744  1.00  0.00     0.086 H 
ATOM      9  H   UNL     1     -47.737  34.410  25.027  1.00  0.00     0.065 H 
ENDROOT
BRANCH   1  10
ATOM     10  C   UNL     1     -46.954  36.534  26.553  1.00  0.00     0.115 C 
ATOM     11  H   UNL     1     -47.932  36.759  26.109  1.00  0.00     0.076 H 
ATOM     12  H   UNL     1     -46.208  36.835  25.807  1.00  0.00     0.076 H 
BRANCH  10  13
ATOM     13  O   UNL     1     -46.719  37.345  27.707  1.00  0.00    -0.489 OA
BRANCH  13  14
ATOM     14  C   UNL     1     -45.906  38.439  27.584  1.00  0.00     0.122 A 
ATOM     15  C   UNL     1     -43.944  42.282  25.443  1.00  0.00     0.058 C 
ATOM     16  C   UNL     1     -43.663  42.770  26.869  1.00  0.00     0.108 C 
ATOM     17  N   UNL     1     -45.082  41.349  25.435  1.00  0.00    -0.376 N 
ATOM     18  H   UNL     1     -43.065  41.743  25.065  1.00  0.00     0.056 H 
ATOM     19  O   UNL     1     -43.289  41.683  27.727  1.00  0.00    -0.489 OA
ATOM     20  H   UNL     1     -42.828  43.478  26.868  1.00  0.00     0.073 H 
ATOM     21  H   UNL     1     -44.530  43.283  27.304  1.00  0.00     0.073 H 
ATOM     22  C   UNL     1     -45.029  40.447  26.528  1.00  0.00     0.081 A 
ATOM     23  H   UNL     1     -45.983  41.824  25.455  1.00  0.00     0.161 HD
ATOM     24  C   UNL     1     -44.155  40.621  27.615  1.00  0.00     0.142 A 
ATOM     25  C   UNL     1     -45.918  39.362  26.536  1.00  0.00     0.007 A 
ATOM     26  C   UNL     1     -44.132  39.698  28.656  1.00  0.00    -0.014 A 
ATOM     27  H   UNL     1     -46.599  39.266  25.697  1.00  0.00     0.069 H 
ATOM     28  C   UNL     1     -45.009  38.613  28.641  1.00  0.00    -0.016 A 
ATOM     29  H   UNL     1     -43.444  39.832  29.487  1.00  0.00     0.066 H 
ATOM     30  H   UNL     1     -44.995  37.901  29.461  1.00  0.00     0.066 H 
BRANCH  15  31
ATOM     31  C   UNL     1     -44.243  43.448  24.507  1.00  0.00    -0.042 C 
ATOM     32  H   UNL     1     -43.472  44.223  24.575  1.00  0.00     0.025 H 
ATOM     33  H   UNL     1     -44.295  43.111  23.467  1.00  0.00     0.025 H 
ATOM     34  H   UNL     1     -45.201  43.913  24.762  1.00  0.00     0.025 H 
ENDBRANCH  15  31
ENDBRANCH  13  14
ENDBRANCH  10  13
ENDBRANCH   1  10
BRANCH   5  35
ATOM     35  N   UNL     1     -47.517  31.699  25.319  1.00  0.00    -0.299 N 
ATOM     36  C   UNL     1     -48.504  30.774  25.604  1.00  0.00     0.021 A 
ATOM     37  C   UNL     1     -47.083  31.441  24.015  1.00  0.00     0.150 A 
ATOM     38  C   UNL     1     -48.679  29.934  24.526  1.00  0.00     0.033 A 
ATOM     39  H   UNL     1     -49.028  30.759  26.549  1.00  0.00     0.083 H 
ATOM     40  C   UNL     1     -47.812  30.370  23.493  1.00  0.00     0.071 A 
ATOM     41  N   UNL     1     -46.115  32.106  23.352  1.00  0.00    -0.218 NA
ATOM     42  C   UNL     1     -47.543  30.014  22.160  1.00  0.00     0.137 A 
ATOM     43  C   UNL     1     -45.924  31.653  22.108  1.00  0.00     0.120 A 
ATOM     44  N   UNL     1     -46.583  30.668  21.483  1.00  0.00    -0.219 NA
ATOM     45  H   UNL     1     -45.146  32.147  21.532  1.00  0.00     0.106 H 
BRANCH  38  46
ATOM     46  C   UNL     1     -49.611  28.812  24.486  1.00  0.00     0.095 A 
ATOM     47  C   UNL     1     -49.604  27.710  25.366  1.00  0.00    -0.016 A 
ATOM     48  N   UNL     1     -50.629  28.754  23.620  1.00  0.00    -0.173 NA
ATOM     49  C   UNL     1     -50.675  26.940  24.975  1.00  0.00     0.025 A 
ATOM     50  H   UNL     1     -48.919  27.507  26.179  1.00  0.00     0.066 H 
ATOM     51  N   UNL     1     -51.254  27.606  23.935  1.00  0.00    -0.275 N 
ATOM     52  H   UNL     1     -51.067  26.004  25.350  1.00  0.00     0.084 H 
BRANCH  51  53
ATOM     53  C   UNL     1     -52.425  27.207  23.192  1.00  0.00     0.030 C 
ATOM     54  H   UNL     1     -53.175  27.998  23.281  1.00  0.00     0.048 H 
ATOM     55  H   UNL     1     -52.815  26.273  23.601  1.00  0.00     0.048 H 
ATOM     56  H   UNL     1     -52.137  27.065  22.147  1.00  0.00     0.048 H 
ENDBRANCH  51  53
ENDBRANCH  38  46
BRANCH  42  57
ATOM     57  N   UNL     1     -48.231  29.039  21.447  1.00  0.00    -0.383 N 
ATOM     58  H   UNL     1     -47.887  28.121  21.710  1.00  0.00     0.158 HD
ATOM     59  H   UNL     1     -48.272  29.213  20.450  1.00  0.00     0.158 HD
ENDBRANCH  42  57
ENDBRANCH   5  35
TORSDOF 8
ENDMDL
