MODEL 1
REMARK VINA RESULT:     -10.7      0.000      0.000
REMARK SMILES CNc1ccc2ccc(OCc3cccc(-n4cc(C5CCCC5)c5c(N)ncnc54)c3)cc2n1
REMARK SMILES IDX 11 1 10 4 9 5 3 6 4 7 35 8 5 9 34 11 6 12 33 14 7 15 8 17
REMARK SMILES IDX 2 20 1 22 12 26 13 27 32 28 14 29 16 31 15 33 17 36 18 37
REMARK SMILES IDX 31 38 19 39 25 41 30 42 26 43 29 44 28 45 20 47 21 48 24 49
REMARK SMILES IDX 22 51 23 54 27 61
REMARK H PARENT 11 2 11 3 4 10 5 13 33 16 7 18 8 19 2 21 1 23 1 24 1 25 13 30
REMARK H PARENT 32 32 14 34 15 35 18 40 29 46 20 50 21 52 21 53 24 55 24 56
REMARK H PARENT 22 57 22 58 23 59 23 60 27 62 27 63
REMARK Flexibility Score: inf
ROOT
ATOM      1  C   UNL     1     -48.986  35.530  27.297  1.00  0.00     0.113 C 
ATOM      2  H   UNL     1     -49.193  36.462  26.756  1.00  0.00     0.076 H 
ATOM      3  H   UNL     1     -49.963  35.081  27.514  1.00  0.00     0.076 H 
ENDROOT
BRANCH   1   4
ATOM      4  O   UNL     1     -48.375  35.801  28.560  1.00  0.00    -0.489 OA
BRANCH   4   5
ATOM      5  C   UNL     1     -47.301  36.648  28.596  1.00  0.00     0.122 A 
ATOM      6  C   UNL     1     -45.510  40.598  26.617  1.00  0.00     0.126 A 
ATOM      7  C   UNL     1     -44.392  40.558  27.444  1.00  0.00    -0.019 A 
ATOM      8  N   UNL     1     -46.486  39.672  26.706  1.00  0.00    -0.231 NA
ATOM      9  C   UNL     1     -44.264  39.530  28.371  1.00  0.00    -0.049 A 
ATOM     10  H   UNL     1     -43.633  41.329  27.378  1.00  0.00     0.066 H 
ATOM     11  C   UNL     1     -46.370  38.673  27.601  1.00  0.00     0.076 A 
ATOM     12  C   UNL     1     -45.264  38.558  28.463  1.00  0.00     0.001 A 
ATOM     13  H   UNL     1     -43.393  39.499  29.018  1.00  0.00     0.063 H 
ATOM     14  C   UNL     1     -47.370  37.715  27.692  1.00  0.00     0.007 A 
ATOM     15  C   UNL     1     -45.189  37.500  29.383  1.00  0.00    -0.049 A 
ATOM     16  H   UNL     1     -48.231  37.800  27.033  1.00  0.00     0.069 H 
ATOM     17  C   UNL     1     -46.207  36.548  29.449  1.00  0.00    -0.019 A 
ATOM     18  H   UNL     1     -44.341  37.415  30.059  1.00  0.00     0.063 H 
ATOM     19  H   UNL     1     -46.122  35.760  30.189  1.00  0.00     0.066 H 
BRANCH   6  20
ATOM     20  N   UNL     1     -45.617  41.668  25.710  1.00  0.00    -0.373 N 
ATOM     21  H   UNL     1     -46.448  42.206  25.933  1.00  0.00     0.161 HD
BRANCH  20  22
ATOM     22  C   UNL     1     -44.432  42.508  25.640  1.00  0.00     0.005 C 
ATOM     23  H   UNL     1     -44.446  43.153  24.754  1.00  0.00     0.045 H 
ATOM     24  H   UNL     1     -44.319  43.121  26.541  1.00  0.00     0.045 H 
ATOM     25  H   UNL     1     -43.547  41.868  25.568  1.00  0.00     0.045 H 
ENDBRANCH  20  22
ENDBRANCH   6  20
ENDBRANCH   4   5
ENDBRANCH   1   4
BRANCH   1  26
ATOM     26  C   UNL     1     -48.217  34.541  26.448  1.00  0.00    -0.009 A 
ATOM     27  C   UNL     1     -46.924  34.823  25.995  1.00  0.00    -0.055 A 
ATOM     28  C   UNL     1     -48.787  33.290  26.145  1.00  0.00    -0.031 A 
ATOM     29  C   UNL     1     -46.231  33.890  25.228  1.00  0.00    -0.060 A 
ATOM     30  H   UNL     1     -46.453  35.775  26.229  1.00  0.00     0.063 H 
ATOM     31  C   UNL     1     -48.097  32.337  25.370  1.00  0.00     0.047 A 
ATOM     32  H   UNL     1     -49.794  33.099  26.505  1.00  0.00     0.065 H 
ATOM     33  C   UNL     1     -46.813  32.659  24.914  1.00  0.00    -0.038 A 
ATOM     34  H   UNL     1     -45.229  34.119  24.873  1.00  0.00     0.062 H 
ATOM     35  H   UNL     1     -46.213  31.967  24.334  1.00  0.00     0.064 H 
BRANCH  31  36
ATOM     36  N   UNL     1     -48.702  31.068  25.068  1.00  0.00    -0.301 N 
ATOM     37  C   UNL     1     -48.173  29.836  25.418  1.00  0.00     0.015 A 
ATOM     38  C   UNL     1     -49.894  30.820  24.384  1.00  0.00     0.150 A 
ATOM     39  C   UNL     1     -48.998  28.811  24.991  1.00  0.00    -0.013 A 
ATOM     40  H   UNL     1     -47.226  29.765  25.932  1.00  0.00     0.083 H 
ATOM     41  C   UNL     1     -50.086  29.440  24.304  1.00  0.00     0.065 A 
ATOM     42  N   UNL     1     -50.747  31.746  23.899  1.00  0.00    -0.218 NA
ATOM     43  C   UNL     1     -51.237  29.005  23.620  1.00  0.00     0.136 A 
ATOM     44  C   UNL     1     -51.812  31.211  23.296  1.00  0.00     0.120 A 
ATOM     45  N   UNL     1     -52.094  29.912  23.123  1.00  0.00    -0.219 NA
ATOM     46  H   UNL     1     -52.537  31.913  22.893  1.00  0.00     0.106 H 
BRANCH  39  47
ATOM     47  C   UNL     1     -48.782  27.341  25.195  1.00  0.00    -0.014 C 
ATOM     48  C   UNL     1     -48.996  26.834  26.624  1.00  0.00    -0.046 C 
ATOM     49  C   UNL     1     -47.360  26.879  24.847  1.00  0.00    -0.046 C 
ATOM     50  H   UNL     1     -49.489  26.787  24.562  1.00  0.00     0.035 H 
ATOM     51  C   UNL     1     -48.306  25.480  26.605  1.00  0.00    -0.053 C 
ATOM     52  H   UNL     1     -48.515  27.478  27.370  1.00  0.00     0.027 H 
ATOM     53  H   UNL     1     -50.057  26.755  26.882  1.00  0.00     0.027 H 
ATOM     54  C   UNL     1     -47.033  25.735  25.811  1.00  0.00    -0.053 C 
ATOM     55  H   UNL     1     -46.621  27.683  24.962  1.00  0.00     0.027 H 
ATOM     56  H   UNL     1     -47.305  26.544  23.806  1.00  0.00     0.027 H 
ATOM     57  H   UNL     1     -48.100  25.101  27.610  1.00  0.00     0.027 H 
ATOM     58  H   UNL     1     -48.932  24.745  26.085  1.00  0.00     0.027 H 
ATOM     59  H   UNL     1     -46.698  24.837  25.282  1.00  0.00     0.027 H 
ATOM     60  H   UNL     1     -46.226  26.043  26.484  1.00  0.00     0.027 H 
ENDBRANCH  39  47
BRANCH  43  61
ATOM     61  N   UNL     1     -51.561  27.673  23.387  1.00  0.00    -0.383 N 
ATOM     62  H   UNL     1     -52.168  27.276  24.089  1.00  0.00     0.158 HD
ATOM     63  H   UNL     1     -50.708  27.149  23.214  1.00  0.00     0.158 HD
ENDBRANCH  43  61
ENDBRANCH  31  36
ENDBRANCH   1  26
TORSDOF 8
ENDMDL
MODEL 2
REMARK VINA RESULT:     -10.6      2.926     11.671
REMARK SMILES CNc1ccc2ccc(OCc3cccc(-n4cc(C5CCCC5)c5c(N)ncnc54)c3)cc2n1
REMARK SMILES IDX 11 1 10 4 9 5 3 6 4 7 35 8 5 9 34 11 6 12 33 14 7 15 8 17
REMARK SMILES IDX 2 20 1 22 12 26 13 27 32 28 14 29 16 31 15 33 17 36 18 37
REMARK SMILES IDX 31 38 19 39 25 41 30 42 26 43 29 44 28 45 20 47 21 48 24 49
REMARK SMILES IDX 22 51 23 54 27 61
REMARK H PARENT 11 2 11 3 4 10 5 13 33 16 7 18 8 19 2 21 1 23 1 24 1 25 13 30
REMARK H PARENT 32 32 14 34 15 35 18 40 29 46 20 50 21 52 21 53 24 55 24 56
REMARK H PARENT 22 57 22 58 23 59 23 60 27 62 27 63
REMARK Flexibility Score: inf
ROOT
ATOM      1  C   UNL     1     -46.744  34.704  26.581  1.00  0.00     0.113 C 
ATOM      2  H   UNL     1     -46.455  34.664  25.522  1.00  0.00     0.076 H 
ATOM      3  H   UNL     1     -45.852  34.416  27.151  1.00  0.00     0.076 H 
ENDROOT
BRANCH   1   4
ATOM      4  O   UNL     1     -47.744  33.725  26.871  1.00  0.00    -0.489 OA
BRANCH   4   5
ATOM      5  C   UNL     1     -48.132  32.875  25.873  1.00  0.00     0.122 A 
ATOM      6  C   UNL     1     -46.455  30.097  22.380  1.00  0.00     0.126 A 
ATOM      7  C   UNL     1     -47.737  29.683  22.033  1.00  0.00    -0.019 A 
ATOM      8  N   UNL     1     -46.242  30.956  23.397  1.00  0.00    -0.231 NA
ATOM      9  C   UNL     1     -48.829  30.180  22.736  1.00  0.00    -0.049 A 
ATOM     10  H   UNL     1     -47.885  28.969  21.231  1.00  0.00     0.066 H 
ATOM     11  C   UNL     1     -47.294  31.441  24.084  1.00  0.00     0.076 A 
ATOM     12  C   UNL     1     -48.620  31.079  23.785  1.00  0.00     0.001 A 
ATOM     13  H   UNL     1     -49.830  29.856  22.468  1.00  0.00     0.063 H 
ATOM     14  C   UNL     1     -47.079  32.329  25.129  1.00  0.00     0.007 A 
ATOM     15  C   UNL     1     -49.685  31.610  24.532  1.00  0.00    -0.049 A 
ATOM     16  H   UNL     1     -46.056  32.609  25.370  1.00  0.00     0.069 H 
ATOM     17  C   UNL     1     -49.440  32.504  25.574  1.00  0.00    -0.019 A 
ATOM     18  H   UNL     1     -50.711  31.323  24.311  1.00  0.00     0.063 H 
ATOM     19  H   UNL     1     -50.288  32.872  26.141  1.00  0.00     0.066 H 
BRANCH   6  20
ATOM     20  N   UNL     1     -45.374  29.553  21.663  1.00  0.00    -0.373 N 
ATOM     21  H   UNL     1     -44.824  30.312  21.272  1.00  0.00     0.161 HD
BRANCH  20  22
ATOM     22  C   UNL     1     -44.553  28.633  22.434  1.00  0.00     0.005 C 
ATOM     23  H   UNL     1     -45.156  27.842  22.894  1.00  0.00     0.045 H 
ATOM     24  H   UNL     1     -43.764  28.186  21.820  1.00  0.00     0.045 H 
ATOM     25  H   UNL     1     -44.063  29.186  23.242  1.00  0.00     0.045 H 
ENDBRANCH  20  22
ENDBRANCH   6  20
ENDBRANCH   4   5
ENDBRANCH   1   4
BRANCH   1  26
ATOM     26  C   UNL     1     -47.121  36.105  27.013  1.00  0.00    -0.009 A 
ATOM     27  C   UNL     1     -48.416  36.410  27.441  1.00  0.00    -0.055 A 
ATOM     28  C   UNL     1     -46.140  37.116  27.033  1.00  0.00    -0.031 A 
ATOM     29  C   UNL     1     -48.734  37.703  27.848  1.00  0.00    -0.060 A 
ATOM     30  H   UNL     1     -49.189  35.644  27.452  1.00  0.00     0.063 H 
ATOM     31  C   UNL     1     -46.448  38.428  27.443  1.00  0.00     0.047 A 
ATOM     32  H   UNL     1     -45.144  36.853  26.691  1.00  0.00     0.065 H 
ATOM     33  C   UNL     1     -47.761  38.706  27.845  1.00  0.00    -0.038 A 
ATOM     34  H   UNL     1     -49.745  37.935  28.173  1.00  0.00     0.062 H 
ATOM     35  H   UNL     1     -48.065  39.686  28.196  1.00  0.00     0.064 H 
BRANCH  31  36
ATOM     36  N   UNL     1     -45.432  39.446  27.449  1.00  0.00    -0.301 N 
ATOM     37  C   UNL     1     -45.290  40.427  26.481  1.00  0.00     0.015 A 
ATOM     38  C   UNL     1     -44.418  39.649  28.387  1.00  0.00     0.150 A 
ATOM     39  C   UNL     1     -44.225  41.257  26.781  1.00  0.00    -0.013 A 
ATOM     40  H   UNL     1     -45.946  40.459  25.624  1.00  0.00     0.083 H 
ATOM     41  C   UNL     1     -43.649  40.742  27.987  1.00  0.00     0.065 A 
ATOM     42  N   UNL     1     -44.215  38.936  29.514  1.00  0.00    -0.218 NA
ATOM     43  C   UNL     1     -42.558  41.077  28.810  1.00  0.00     0.136 A 
ATOM     44  C   UNL     1     -43.168  39.365  30.224  1.00  0.00     0.120 A 
ATOM     45  N   UNL     1     -42.335  40.374  29.933  1.00  0.00    -0.219 NA
ATOM     46  H   UNL     1     -42.964  38.831  31.147  1.00  0.00     0.106 H 
BRANCH  39  47
ATOM     47  C   UNL     1     -43.763  42.445  25.990  1.00  0.00    -0.014 C 
ATOM     48  C   UNL     1     -44.223  43.808  26.515  1.00  0.00    -0.046 C 
ATOM     49  C   UNL     1     -44.241  42.430  24.531  1.00  0.00    -0.046 C 
ATOM     50  H   UNL     1     -42.665  42.468  25.992  1.00  0.00     0.035 H 
ATOM     51  C   UNL     1     -43.989  44.722  25.323  1.00  0.00    -0.053 C 
ATOM     52  H   UNL     1     -45.288  43.815  26.777  1.00  0.00     0.027 H 
ATOM     53  H   UNL     1     -43.657  44.125  27.397  1.00  0.00     0.027 H 
ATOM     54  C   UNL     1     -44.459  43.893  24.136  1.00  0.00    -0.053 C 
ATOM     55  H   UNL     1     -45.176  41.869  24.405  1.00  0.00     0.027 H 
ATOM     56  H   UNL     1     -43.496  41.956  23.884  1.00  0.00     0.027 H 
ATOM     57  H   UNL     1     -44.529  45.669  25.409  1.00  0.00     0.027 H 
ATOM     58  H   UNL     1     -42.920  44.947  25.225  1.00  0.00     0.027 H 
ATOM     59  H   UNL     1     -43.920  44.155  23.220  1.00  0.00     0.027 H 
ATOM     60  H   UNL     1     -45.525  44.069  23.954  1.00  0.00     0.027 H 
ENDBRANCH  39  47
BRANCH  43  61
ATOM     61  N   UNL     1     -41.647  42.093  28.539  1.00  0.00    -0.383 N 
ATOM     62  H   UNL     1     -42.025  43.020  28.670  1.00  0.00     0.158 HD
ATOM     63  H   UNL     1     -41.226  41.928  27.630  1.00  0.00     0.158 HD
ENDBRANCH  43  61
ENDBRANCH  31  36
ENDBRANCH   1  26
TORSDOF 8
ENDMDL
MODEL 3
REMARK VINA RESULT:     -10.6      2.176     11.650
REMARK SMILES CNc1ccc2ccc(OCc3cccc(-n4cc(C5CCCC5)c5c(N)ncnc54)c3)cc2n1
REMARK SMILES IDX 11 1 10 4 9 5 3 6 4 7 35 8 5 9 34 11 6 12 33 14 7 15 8 17
REMARK SMILES IDX 2 20 1 22 12 26 13 27 32 28 14 29 16 31 15 33 17 36 18 37
REMARK SMILES IDX 31 38 19 39 25 41 30 42 26 43 29 44 28 45 20 47 21 48 24 49
REMARK SMILES IDX 22 51 23 54 27 61
REMARK H PARENT 11 2 11 3 4 10 5 13 33 16 7 18 8 19 2 21 1 23 1 24 1 25 13 30
REMARK H PARENT 32 32 14 34 15 35 18 40 29 46 20 50 21 52 21 53 24 55 24 56
REMARK H PARENT 22 57 22 58 23 59 23 60 27 62 27 63
REMARK Flexibility Score: inf
ROOT
ATOM      1  C   UNL     1     -46.689  33.765  25.742  1.00  0.00     0.113 C 
ATOM      2  H   UNL     1     -45.680  33.932  25.343  1.00  0.00     0.076 H 
ATOM      3  H   UNL     1     -46.585  33.001  26.522  1.00  0.00     0.076 H 
ENDROOT
BRANCH   1   4
ATOM      4  O   UNL     1     -47.544  33.206  24.741  1.00  0.00    -0.489 OA
BRANCH   4   5
ATOM      5  C   UNL     1     -47.423  31.876  24.450  1.00  0.00     0.122 A 
ATOM      6  C   UNL     1     -48.937  27.546  25.753  1.00  0.00     0.126 A 
ATOM      7  C   UNL     1     -48.190  26.936  24.751  1.00  0.00    -0.019 A 
ATOM      8  N   UNL     1     -48.940  28.885  25.912  1.00  0.00    -0.231 NA
ATOM      9  C   UNL     1     -47.412  27.718  23.905  1.00  0.00    -0.049 A 
ATOM     10  H   UNL     1     -48.223  25.860  24.620  1.00  0.00     0.066 H 
ATOM     11  C   UNL     1     -48.192  29.651  25.096  1.00  0.00     0.076 A 
ATOM     12  C   UNL     1     -47.400  29.105  24.068  1.00  0.00     0.001 A 
ATOM     13  H   UNL     1     -46.830  27.242  23.120  1.00  0.00     0.063 H 
ATOM     14  C   UNL     1     -48.189  31.029  25.260  1.00  0.00     0.007 A 
ATOM     15  C   UNL     1     -46.637  29.944  23.240  1.00  0.00    -0.049 A 
ATOM     16  H   UNL     1     -48.802  31.458  26.049  1.00  0.00     0.069 H 
ATOM     17  C   UNL     1     -46.651  31.327  23.431  1.00  0.00    -0.019 A 
ATOM     18  H   UNL     1     -46.034  29.527  22.437  1.00  0.00     0.063 H 
ATOM     19  H   UNL     1     -46.066  31.941  22.755  1.00  0.00     0.066 H 
BRANCH   6  20
ATOM     20  N   UNL     1     -49.731  26.725  26.573  1.00  0.00    -0.373 N 
ATOM     21  H   UNL     1     -49.843  27.173  27.476  1.00  0.00     0.161 HD
BRANCH  20  22
ATOM     22  C   UNL     1     -51.012  26.361  25.987  1.00  0.00     0.005 C 
ATOM     23  H   UNL     1     -50.924  26.172  24.911  1.00  0.00     0.045 H 
ATOM     24  H   UNL     1     -51.448  25.487  26.482  1.00  0.00     0.045 H 
ATOM     25  H   UNL     1     -51.710  27.194  26.119  1.00  0.00     0.045 H 
ENDBRANCH  20  22
ENDBRANCH   6  20
ENDBRANCH   4   5
ENDBRANCH   1   4
BRANCH   1  26
ATOM     26  C   UNL     1     -47.253  35.006  26.400  1.00  0.00    -0.009 A 
ATOM     27  C   UNL     1     -48.568  35.045  26.871  1.00  0.00    -0.055 A 
ATOM     28  C   UNL     1     -46.427  36.132  26.587  1.00  0.00    -0.031 A 
ATOM     29  C   UNL     1     -49.059  36.194  27.486  1.00  0.00    -0.060 A 
ATOM     30  H   UNL     1     -49.223  34.184  26.754  1.00  0.00     0.063 H 
ATOM     31  C   UNL     1     -46.910  37.300  27.208  1.00  0.00     0.047 A 
ATOM     32  H   UNL     1     -45.412  36.075  26.207  1.00  0.00     0.065 H 
ATOM     33  C   UNL     1     -48.239  37.314  27.650  1.00  0.00    -0.038 A 
ATOM     34  H   UNL     1     -50.085  36.220  27.844  1.00  0.00     0.062 H 
ATOM     35  H   UNL     1     -48.672  38.169  28.158  1.00  0.00     0.064 H 
BRANCH  31  36
ATOM     36  N   UNL     1     -46.051  38.439  27.384  1.00  0.00    -0.301 N 
ATOM     37  C   UNL     1     -46.018  39.541  26.544  1.00  0.00     0.015 A 
ATOM     38  C   UNL     1     -45.109  38.665  28.388  1.00  0.00     0.150 A 
ATOM     39  C   UNL     1     -45.092  40.468  26.991  1.00  0.00    -0.013 A 
ATOM     40  H   UNL     1     -46.641  39.587  25.663  1.00  0.00     0.083 H 
ATOM     41  C   UNL     1     -44.490  39.893  28.156  1.00  0.00     0.065 A 
ATOM     42  N   UNL     1     -44.844  37.855  29.434  1.00  0.00    -0.218 NA
ATOM     43  C   UNL     1     -43.486  40.273  29.067  1.00  0.00     0.136 A 
ATOM     44  C   UNL     1     -43.894  38.335  30.241  1.00  0.00     0.120 A 
ATOM     45  N   UNL     1     -43.204  39.476  30.111  1.00  0.00    -0.219 NA
ATOM     46  H   UNL     1     -43.647  37.725  31.105  1.00  0.00     0.106 H 
BRANCH  39  47
ATOM     47  C   UNL     1     -44.778  41.795  26.367  1.00  0.00    -0.014 C 
ATOM     48  C   UNL     1     -45.990  42.632  25.949  1.00  0.00    -0.046 C 
ATOM     49  C   UNL     1     -43.945  41.683  25.082  1.00  0.00    -0.046 C 
ATOM     50  H   UNL     1     -44.217  42.403  27.089  1.00  0.00     0.035 H 
ATOM     51  C   UNL     1     -45.381  43.651  25.000  1.00  0.00    -0.053 C 
ATOM     52  H   UNL     1     -46.742  42.039  25.415  1.00  0.00     0.027 H 
ATOM     53  H   UNL     1     -46.482  43.106  26.805  1.00  0.00     0.027 H 
ATOM     54  C   UNL     1     -44.395  42.834  24.178  1.00  0.00    -0.053 C 
ATOM     55  H   UNL     1     -44.098  40.726  24.568  1.00  0.00     0.027 H 
ATOM     56  H   UNL     1     -42.876  41.755  25.307  1.00  0.00     0.027 H 
ATOM     57  H   UNL     1     -46.132  44.144  24.377  1.00  0.00     0.027 H 
ATOM     58  H   UNL     1     -44.848  44.424  25.567  1.00  0.00     0.027 H 
ATOM     59  H   UNL     1     -43.551  43.441  23.835  1.00  0.00     0.027 H 
ATOM     60  H   UNL     1     -44.892  42.428  23.289  1.00  0.00     0.027 H 
ENDBRANCH  39  47
BRANCH  43  61
ATOM     61  N   UNL     1     -42.722  41.430  28.962  1.00  0.00    -0.383 N 
ATOM     62  H   UNL     1     -43.271  42.277  28.935  1.00  0.00     0.158 HD
ATOM     63  H   UNL     1     -42.062  41.324  28.197  1.00  0.00     0.158 HD
ENDBRANCH  43  61
ENDBRANCH  31  36
ENDBRANCH   1  26
TORSDOF 8
ENDMDL
MODEL 4
REMARK VINA RESULT:     -10.3      1.999     11.830
REMARK SMILES CNc1ccc2ccc(OCc3cccc(-n4cc(C5CCCC5)c5c(N)ncnc54)c3)cc2n1
REMARK SMILES IDX 11 1 10 4 9 5 3 6 4 7 35 8 5 9 34 11 6 12 33 14 7 15 8 17
REMARK SMILES IDX 2 20 1 22 12 26 13 27 32 28 14 29 16 31 15 33 17 36 18 37
REMARK SMILES IDX 31 38 19 39 25 41 30 42 26 43 29 44 28 45 20 47 21 48 24 49
REMARK SMILES IDX 22 51 23 54 27 61
REMARK H PARENT 11 2 11 3 4 10 5 13 33 16 7 18 8 19 2 21 1 23 1 24 1 25 13 30
REMARK H PARENT 32 32 14 34 15 35 18 40 29 46 20 50 21 52 21 53 24 55 24 56
REMARK H PARENT 22 57 22 58 23 59 23 60 27 62 27 63
REMARK Flexibility Score: inf
ROOT
ATOM      1  C   UNL     1     -48.370  35.945  27.136  1.00  0.00     0.113 C 
ATOM      2  H   UNL     1     -49.359  36.396  27.282  1.00  0.00     0.076 H 
ATOM      3  H   UNL     1     -48.128  36.079  26.074  1.00  0.00     0.076 H 
ENDROOT
BRANCH   1   4
ATOM      4  O   UNL     1     -48.416  34.534  27.366  1.00  0.00    -0.489 OA
BRANCH   4   5
ATOM      5  C   UNL     1     -47.890  33.702  26.416  1.00  0.00     0.122 A 
ATOM      6  C   UNL     1     -48.556  29.509  24.247  1.00  0.00     0.126 A 
ATOM      7  C   UNL     1     -47.440  29.700  23.439  1.00  0.00    -0.019 A 
ATOM      8  N   UNL     1     -48.939  30.434  25.150  1.00  0.00    -0.231 NA
ATOM      9  C   UNL     1     -46.688  30.862  23.576  1.00  0.00    -0.049 A 
ATOM     10  H   UNL     1     -47.165  28.958  22.698  1.00  0.00     0.066 H 
ATOM     11  C   UNL     1     -48.217  31.563  25.288  1.00  0.00     0.076 A 
ATOM     12  C   UNL     1     -47.069  31.822  24.516  1.00  0.00     0.001 A 
ATOM     13  H   UNL     1     -45.817  31.013  22.944  1.00  0.00     0.063 H 
ATOM     14  C   UNL     1     -48.605  32.515  26.220  1.00  0.00     0.007 A 
ATOM     15  C   UNL     1     -46.350  33.014  24.695  1.00  0.00    -0.049 A 
ATOM     16  H   UNL     1     -49.495  32.325  26.816  1.00  0.00     0.069 H 
ATOM     17  C   UNL     1     -46.762  33.952  25.642  1.00  0.00    -0.019 A 
ATOM     18  H   UNL     1     -45.470  33.223  24.091  1.00  0.00     0.063 H 
ATOM     19  H   UNL     1     -46.192  34.871  25.732  1.00  0.00     0.066 H 
BRANCH   6  20
ATOM     20  N   UNL     1     -49.306  28.334  24.062  1.00  0.00    -0.373 N 
ATOM     21  H   UNL     1     -50.291  28.552  24.175  1.00  0.00     0.161 HD
BRANCH  20  22
ATOM     22  C   UNL     1     -49.044  27.654  22.803  1.00  0.00     0.005 C 
ATOM     23  H   UNL     1     -47.977  27.664  22.554  1.00  0.00     0.045 H 
ATOM     24  H   UNL     1     -49.412  26.623  22.818  1.00  0.00     0.045 H 
ATOM     25  H   UNL     1     -49.574  28.177  22.001  1.00  0.00     0.045 H 
ENDBRANCH  20  22
ENDBRANCH   6  20
ENDBRANCH   4   5
ENDBRANCH   1   4
BRANCH   1  26
ATOM     26  C   UNL     1     -47.298  36.657  27.934  1.00  0.00    -0.009 A 
ATOM     27  C   UNL     1     -46.841  36.148  29.153  1.00  0.00    -0.055 A 
ATOM     28  C   UNL     1     -46.711  37.830  27.422  1.00  0.00    -0.031 A 
ATOM     29  C   UNL     1     -45.844  36.813  29.862  1.00  0.00    -0.060 A 
ATOM     30  H   UNL     1     -47.266  35.234  29.564  1.00  0.00     0.063 H 
ATOM     31  C   UNL     1     -45.702  38.513  28.127  1.00  0.00     0.047 A 
ATOM     32  H   UNL     1     -47.088  38.205  26.475  1.00  0.00     0.065 H 
ATOM     33  C   UNL     1     -45.281  37.988  29.356  1.00  0.00    -0.038 A 
ATOM     34  H   UNL     1     -45.499  36.415  30.812  1.00  0.00     0.062 H 
ATOM     35  H   UNL     1     -44.493  38.446  29.943  1.00  0.00     0.064 H 
BRANCH  31  36
ATOM     36  N   UNL     1     -45.120  39.712  27.588  1.00  0.00    -0.301 N 
ATOM     37  C   UNL     1     -45.594  40.388  26.475  1.00  0.00     0.015 A 
ATOM     38  C   UNL     1     -44.005  40.415  28.047  1.00  0.00     0.150 A 
ATOM     39  C   UNL     1     -44.822  41.508  26.219  1.00  0.00    -0.013 A 
ATOM     40  H   UNL     1     -46.440  40.016  25.918  1.00  0.00     0.083 H 
ATOM     41  C   UNL     1     -43.787  41.509  27.210  1.00  0.00     0.065 A 
ATOM     42  N   UNL     1     -43.264  40.118  29.135  1.00  0.00    -0.218 NA
ATOM     43  C   UNL     1     -42.679  42.322  27.513  1.00  0.00     0.136 A 
ATOM     44  C   UNL     1     -42.259  40.975  29.334  1.00  0.00     0.120 A 
ATOM     45  N   UNL     1     -41.924  42.037  28.588  1.00  0.00    -0.219 NA
ATOM     46  H   UNL     1     -41.634  40.787  30.202  1.00  0.00     0.106 H 
BRANCH  39  47
ATOM     47  C   UNL     1     -45.024  42.505  25.117  1.00  0.00    -0.014 C 
ATOM     48  C   UNL     1     -43.852  42.660  24.143  1.00  0.00    -0.046 C 
ATOM     49  C   UNL     1     -45.274  43.932  25.624  1.00  0.00    -0.046 C 
ATOM     50  H   UNL     1     -45.888  42.197  24.514  1.00  0.00     0.035 H 
ATOM     51  C   UNL     1     -44.161  43.980  23.456  1.00  0.00    -0.053 C 
ATOM     52  H   UNL     1     -42.888  42.734  24.660  1.00  0.00     0.027 H 
ATOM     53  H   UNL     1     -43.790  41.829  23.433  1.00  0.00     0.027 H 
ATOM     54  C   UNL     1     -44.648  44.871  24.590  1.00  0.00    -0.053 C 
ATOM     55  H   UNL     1     -44.822  44.110  26.608  1.00  0.00     0.027 H 
ATOM     56  H   UNL     1     -46.348  44.123  25.729  1.00  0.00     0.027 H 
ATOM     57  H   UNL     1     -43.291  44.399  22.943  1.00  0.00     0.027 H 
ATOM     58  H   UNL     1     -44.960  43.843  22.717  1.00  0.00     0.027 H 
ATOM     59  H   UNL     1     -45.359  45.626  24.237  1.00  0.00     0.027 H 
ATOM     60  H   UNL     1     -43.801  45.401  25.042  1.00  0.00     0.027 H 
ENDBRANCH  39  47
BRANCH  43  61
ATOM     61  N   UNL     1     -42.272  43.416  26.758  1.00  0.00    -0.383 N 
ATOM     62  H   UNL     1     -42.290  44.288  27.266  1.00  0.00     0.158 HD
ATOM     63  H   UNL     1     -42.782  43.422  25.880  1.00  0.00     0.158 HD
ENDBRANCH  43  61
ENDBRANCH  31  36
ENDBRANCH   1  26
TORSDOF 8
ENDMDL
MODEL 5
REMARK VINA RESULT:     -10.1      1.846     11.624
REMARK SMILES CNc1ccc2ccc(OCc3cccc(-n4cc(C5CCCC5)c5c(N)ncnc54)c3)cc2n1
REMARK SMILES IDX 11 1 10 4 9 5 3 6 4 7 35 8 5 9 34 11 6 12 33 14 7 15 8 17
REMARK SMILES IDX 2 20 1 22 12 26 13 27 32 28 14 29 16 31 15 33 17 36 18 37
REMARK SMILES IDX 31 38 19 39 25 41 30 42 26 43 29 44 28 45 20 47 21 48 24 49
REMARK SMILES IDX 22 51 23 54 27 61
REMARK H PARENT 11 2 11 3 4 10 5 13 33 16 7 18 8 19 2 21 1 23 1 24 1 25 13 30
REMARK H PARENT 32 32 14 34 15 35 18 40 29 46 20 50 21 52 21 53 24 55 24 56
REMARK H PARENT 22 57 22 58 23 59 23 60 27 62 27 63
REMARK Flexibility Score: inf
ROOT
ATOM      1  C   UNL     1     -47.572  35.364  26.353  1.00  0.00     0.113 C 
ATOM      2  H   UNL     1     -48.634  35.643  26.336  1.00  0.00     0.076 H 
ATOM      3  H   UNL     1     -47.241  35.361  25.307  1.00  0.00     0.076 H 
ENDROOT
BRANCH   1   4
ATOM      4  O   UNL     1     -47.406  34.028  26.835  1.00  0.00    -0.489 OA
BRANCH   4   5
ATOM      5  C   UNL     1     -47.260  33.021  25.921  1.00  0.00     0.122 A 
ATOM      6  C   UNL     1     -49.083  28.833  24.556  1.00  0.00     0.126 A 
ATOM      7  C   UNL     1     -48.172  28.727  23.510  1.00  0.00    -0.019 A 
ATOM      8  N   UNL     1     -49.089  29.900  25.380  1.00  0.00    -0.231 NA
ATOM      9  C   UNL     1     -47.232  29.733  23.319  1.00  0.00    -0.049 A 
ATOM     10  H   UNL     1     -48.203  27.875  22.840  1.00  0.00     0.066 H 
ATOM     11  C   UNL     1     -48.183  30.879  25.201  1.00  0.00     0.076 A 
ATOM     12  C   UNL     1     -47.222  30.838  24.174  1.00  0.00     0.001 A 
ATOM     13  H   UNL     1     -46.521  29.653  22.501  1.00  0.00     0.063 H 
ATOM     14  C   UNL     1     -48.183  31.976  26.051  1.00  0.00     0.007 A 
ATOM     15  C   UNL     1     -46.298  31.884  24.026  1.00  0.00    -0.049 A 
ATOM     16  H   UNL     1     -48.926  32.019  26.843  1.00  0.00     0.069 H 
ATOM     17  C   UNL     1     -46.319  32.974  24.897  1.00  0.00    -0.019 A 
ATOM     18  H   UNL     1     -45.562  31.861  23.225  1.00  0.00     0.063 H 
ATOM     19  H   UNL     1     -45.604  33.773  24.733  1.00  0.00     0.066 H 
BRANCH   6  20
ATOM     20  N   UNL     1     -50.036  27.808  24.702  1.00  0.00    -0.373 N 
ATOM     21  H   UNL     1     -50.552  27.713  23.834  1.00  0.00     0.161 HD
BRANCH  20  22
ATOM     22  C   UNL     1     -49.479  26.538  25.141  1.00  0.00     0.005 C 
ATOM     23  H   UNL     1     -48.392  26.505  25.003  1.00  0.00     0.045 H 
ATOM     24  H   UNL     1     -49.725  26.330  26.188  1.00  0.00     0.045 H 
ATOM     25  H   UNL     1     -49.912  25.734  24.538  1.00  0.00     0.045 H 
ENDBRANCH  20  22
ENDBRANCH   6  20
ENDBRANCH   4   5
ENDBRANCH   1   4
BRANCH   1  26
ATOM     26  C   UNL     1     -46.730  36.385  27.088  1.00  0.00    -0.009 A 
ATOM     27  C   UNL     1     -45.956  36.026  28.196  1.00  0.00    -0.055 A 
ATOM     28  C   UNL     1     -46.681  37.713  26.624  1.00  0.00    -0.031 A 
ATOM     29  C   UNL     1     -45.177  36.980  28.846  1.00  0.00    -0.060 A 
ATOM     30  H   UNL     1     -45.962  35.002  28.565  1.00  0.00     0.063 H 
ATOM     31  C   UNL     1     -45.898  38.688  27.271  1.00  0.00     0.047 A 
ATOM     32  H   UNL     1     -47.296  37.965  25.765  1.00  0.00     0.065 H 
ATOM     33  C   UNL     1     -45.151  38.301  28.391  1.00  0.00    -0.038 A 
ATOM     34  H   UNL     1     -44.583  36.696  29.711  1.00  0.00     0.062 H 
ATOM     35  H   UNL     1     -44.507  38.991  28.926  1.00  0.00     0.064 H 
BRANCH  31  36
ATOM     36  N   UNL     1     -45.869  40.040  26.784  1.00  0.00    -0.301 N 
ATOM     37  C   UNL     1     -44.728  40.704  26.361  1.00  0.00     0.015 A 
ATOM     38  C   UNL     1     -46.933  40.932  26.643  1.00  0.00     0.150 A 
ATOM     39  C   UNL     1     -45.036  41.986  25.942  1.00  0.00    -0.013 A 
ATOM     40  H   UNL     1     -43.760  40.227  26.405  1.00  0.00     0.083 H 
ATOM     41  C   UNL     1     -46.444  42.142  26.150  1.00  0.00     0.065 A 
ATOM     42  N   UNL     1     -48.232  40.678  26.909  1.00  0.00    -0.218 NA
ATOM     43  C   UNL     1     -47.385  43.173  25.969  1.00  0.00     0.136 A 
ATOM     44  C   UNL     1     -49.029  41.723  26.673  1.00  0.00     0.120 A 
ATOM     45  N   UNL     1     -48.682  42.941  26.235  1.00  0.00    -0.219 NA
ATOM     46  H   UNL     1     -50.088  41.570  26.862  1.00  0.00     0.106 H 
BRANCH  39  47
ATOM     47  C   UNL     1     -44.080  43.006  25.398  1.00  0.00    -0.014 C 
ATOM     48  C   UNL     1     -43.764  42.884  23.904  1.00  0.00    -0.046 C 
ATOM     49  C   UNL     1     -42.702  42.971  26.072  1.00  0.00    -0.046 C 
ATOM     50  H   UNL     1     -44.509  44.007  25.542  1.00  0.00     0.035 H 
ATOM     51  C   UNL     1     -42.503  43.720  23.761  1.00  0.00    -0.053 C 
ATOM     52  H   UNL     1     -43.553  41.851  23.607  1.00  0.00     0.027 H 
ATOM     53  H   UNL     1     -44.581  43.256  23.276  1.00  0.00     0.027 H 
ATOM     54  C   UNL     1     -41.686  43.355  24.992  1.00  0.00    -0.053 C 
ATOM     55  H   UNL     1     -42.458  41.979  26.472  1.00  0.00     0.027 H 
ATOM     56  H   UNL     1     -42.664  43.671  26.913  1.00  0.00     0.027 H 
ATOM     57  H   UNL     1     -41.967  43.513  22.830  1.00  0.00     0.027 H 
ATOM     58  H   UNL     1     -42.754  44.788  23.779  1.00  0.00     0.027 H 
ATOM     59  H   UNL     1     -41.041  44.180  25.310  1.00  0.00     0.027 H 
ATOM     60  H   UNL     1     -41.041  42.497  24.774  1.00  0.00     0.027 H 
ENDBRANCH  39  47
BRANCH  43  61
ATOM     61  N   UNL     1     -47.073  44.461  25.546  1.00  0.00    -0.383 N 
ATOM     62  H   UNL     1     -47.051  45.138  26.294  1.00  0.00     0.158 HD
ATOM     63  H   UNL     1     -47.672  44.707  24.764  1.00  0.00     0.158 HD
ENDBRANCH  43  61
ENDBRANCH  31  36
ENDBRANCH   1  26
TORSDOF 8
ENDMDL
MODEL 6
REMARK VINA RESULT:     -10.0      1.727      2.374
REMARK SMILES CNc1ccc2ccc(OCc3cccc(-n4cc(C5CCCC5)c5c(N)ncnc54)c3)cc2n1
REMARK SMILES IDX 11 1 10 4 9 5 3 6 4 7 35 8 5 9 34 11 6 12 33 14 7 15 8 17
REMARK SMILES IDX 2 20 1 22 12 26 13 27 32 28 14 29 16 31 15 33 17 36 18 37
REMARK SMILES IDX 31 38 19 39 25 41 30 42 26 43 29 44 28 45 20 47 21 48 24 49
REMARK SMILES IDX 22 51 23 54 27 61
REMARK H PARENT 11 2 11 3 4 10 5 13 33 16 7 18 8 19 2 21 1 23 1 24 1 25 13 30
REMARK H PARENT 32 32 14 34 15 35 18 40 29 46 20 50 21 52 21 53 24 55 24 56
REMARK H PARENT 22 57 22 58 23 59 23 60 27 62 27 63
REMARK Flexibility Score: inf
ROOT
ATOM      1  C   UNL     1     -46.042  34.761  26.955  1.00  0.00     0.113 C 
ATOM      2  H   UNL     1     -45.304  33.997  27.232  1.00  0.00     0.076 H 
ATOM      3  H   UNL     1     -45.661  35.234  26.042  1.00  0.00     0.076 H 
ENDROOT
BRANCH   1   4
ATOM      4  O   UNL     1     -46.107  35.788  27.947  1.00  0.00    -0.489 OA
BRANCH   4   5
ATOM      5  C   UNL     1     -46.025  37.091  27.541  1.00  0.00     0.122 A 
ATOM      6  C   UNL     1     -43.431  41.064  28.014  1.00  0.00     0.126 A 
ATOM      7  C   UNL     1     -44.248  41.755  27.126  1.00  0.00    -0.019 A 
ATOM      8  N   UNL     1     -43.657  39.769  28.318  1.00  0.00    -0.231 NA
ATOM      9  C   UNL     1     -45.335  41.107  26.551  1.00  0.00    -0.049 A 
ATOM     10  H   UNL     1     -44.033  42.787  26.872  1.00  0.00     0.066 H 
ATOM     11  C   UNL     1     -44.706  39.133  27.763  1.00  0.00     0.076 A 
ATOM     12  C   UNL     1     -45.584  39.769  26.866  1.00  0.00     0.001 A 
ATOM     13  H   UNL     1     -45.972  41.645  25.855  1.00  0.00     0.063 H 
ATOM     14  C   UNL     1     -44.944  37.802  28.077  1.00  0.00     0.007 A 
ATOM     15  C   UNL     1     -46.664  39.063  26.312  1.00  0.00    -0.049 A 
ATOM     16  H   UNL     1     -44.267  37.302  28.765  1.00  0.00     0.069 H 
ATOM     17  C   UNL     1     -46.882  37.727  26.648  1.00  0.00    -0.019 A 
ATOM     18  H   UNL     1     -47.337  39.548  25.608  1.00  0.00     0.063 H 
ATOM     19  H   UNL     1     -47.713  37.211  26.180  1.00  0.00     0.066 H 
BRANCH   6  20
ATOM     20  N   UNL     1     -42.327  41.745  28.557  1.00  0.00    -0.373 N 
ATOM     21  H   UNL     1     -42.562  42.728  28.653  1.00  0.00     0.161 HD
BRANCH  20  22
ATOM     22  C   UNL     1     -41.837  41.182  29.805  1.00  0.00     0.005 C 
ATOM     23  H   UNL     1     -42.524  41.383  30.636  1.00  0.00     0.045 H 
ATOM     24  H   UNL     1     -41.663  40.104  29.721  1.00  0.00     0.045 H 
ATOM     25  H   UNL     1     -40.878  41.649  30.052  1.00  0.00     0.045 H 
ENDBRANCH  20  22
ENDBRANCH   6  20
ENDBRANCH   4   5
ENDBRANCH   1   4
BRANCH   1  26
ATOM     26  C   UNL     1     -47.387  34.153  26.619  1.00  0.00    -0.009 A 
ATOM     27  C   UNL     1     -48.578  34.843  26.866  1.00  0.00    -0.055 A 
ATOM     28  C   UNL     1     -47.447  32.890  26.001  1.00  0.00    -0.031 A 
ATOM     29  C   UNL     1     -49.803  34.269  26.535  1.00  0.00    -0.060 A 
ATOM     30  H   UNL     1     -48.560  35.829  27.328  1.00  0.00     0.063 H 
ATOM     31  C   UNL     1     -48.679  32.298  25.660  1.00  0.00     0.047 A 
ATOM     32  H   UNL     1     -46.508  32.374  25.825  1.00  0.00     0.065 H 
ATOM     33  C   UNL     1     -49.854  33.006  25.941  1.00  0.00    -0.038 A 
ATOM     34  H   UNL     1     -50.725  34.808  26.736  1.00  0.00     0.062 H 
ATOM     35  H   UNL     1     -50.836  32.624  25.684  1.00  0.00     0.064 H 
BRANCH  31  36
ATOM     36  N   UNL     1     -48.716  31.003  25.035  1.00  0.00    -0.301 N 
ATOM     37  C   UNL     1     -48.442  29.806  25.678  1.00  0.00     0.015 A 
ATOM     38  C   UNL     1     -49.018  30.692  23.709  1.00  0.00     0.150 A 
ATOM     39  C   UNL     1     -48.573  28.742  24.804  1.00  0.00    -0.013 A 
ATOM     40  H   UNL     1     -48.146  29.790  26.717  1.00  0.00     0.083 H 
ATOM     41  C   UNL     1     -48.915  29.312  23.536  1.00  0.00     0.065 A 
ATOM     42  N   UNL     1     -49.380  31.564  22.744  1.00  0.00    -0.218 NA
ATOM     43  C   UNL     1     -49.165  28.820  22.241  1.00  0.00     0.136 A 
ATOM     44  C   UNL     1     -49.616  30.976  21.568  1.00  0.00     0.120 A 
ATOM     45  N   UNL     1     -49.519  29.674  21.265  1.00  0.00    -0.219 NA
ATOM     46  H   UNL     1     -49.919  31.631  20.757  1.00  0.00     0.106 H 
BRANCH  39  47
ATOM     47  C   UNL     1     -48.380  27.289  25.124  1.00  0.00    -0.014 C 
ATOM     48  C   UNL     1     -48.803  26.861  26.533  1.00  0.00    -0.046 C 
ATOM     49  C   UNL     1     -46.919  26.831  25.022  1.00  0.00    -0.046 C 
ATOM     50  H   UNL     1     -48.979  26.689  24.426  1.00  0.00     0.035 H 
ATOM     51  C   UNL     1     -48.109  25.519  26.696  1.00  0.00    -0.053 C 
ATOM     52  H   UNL     1     -48.446  27.553  27.303  1.00  0.00     0.027 H 
ATOM     53  H   UNL     1     -49.891  26.779  26.632  1.00  0.00     0.027 H 
ATOM     54  C   UNL     1     -46.732  25.749  26.089  1.00  0.00    -0.053 C 
ATOM     55  H   UNL     1     -46.211  27.651  25.200  1.00  0.00     0.027 H 
ATOM     56  H   UNL     1     -46.705  26.438  24.022  1.00  0.00     0.027 H 
ATOM     57  H   UNL     1     -48.053  25.200  27.741  1.00  0.00     0.027 H 
ATOM     58  H   UNL     1     -48.644  24.745  26.132  1.00  0.00     0.027 H 
ATOM     59  H   UNL     1     -46.314  24.827  25.670  1.00  0.00     0.027 H 
ATOM     60  H   UNL     1     -46.038  26.107  26.857  1.00  0.00     0.027 H 
ENDBRANCH  39  47
BRANCH  43  61
ATOM     61  N   UNL     1     -49.050  27.485  21.867  1.00  0.00    -0.383 N 
ATOM     62  H   UNL     1     -49.783  27.175  21.246  1.00  0.00     0.158 HD
ATOM     63  H   UNL     1     -48.926  26.917  22.700  1.00  0.00     0.158 HD
ENDBRANCH  43  61
ENDBRANCH  31  36
ENDBRANCH   1  26
TORSDOF 8
ENDMDL
MODEL 7
REMARK VINA RESULT:      -9.8      2.709     12.005
REMARK SMILES CNc1ccc2ccc(OCc3cccc(-n4cc(C5CCCC5)c5c(N)ncnc54)c3)cc2n1
REMARK SMILES IDX 11 1 10 4 9 5 3 6 4 7 35 8 5 9 34 11 6 12 33 14 7 15 8 17
REMARK SMILES IDX 2 20 1 22 12 26 13 27 32 28 14 29 16 31 15 33 17 36 18 37
REMARK SMILES IDX 31 38 19 39 25 41 30 42 26 43 29 44 28 45 20 47 21 48 24 49
REMARK SMILES IDX 22 51 23 54 27 61
REMARK H PARENT 11 2 11 3 4 10 5 13 33 16 7 18 8 19 2 21 1 23 1 24 1 25 13 30
REMARK H PARENT 32 32 14 34 15 35 18 40 29 46 20 50 21 52 21 53 24 55 24 56
REMARK H PARENT 22 57 22 58 23 59 23 60 27 62 27 63
REMARK Flexibility Score: inf
ROOT
ATOM      1  C   UNL     1     -46.684  36.460  27.813  1.00  0.00     0.113 C 
ATOM      2  H   UNL     1     -45.811  36.374  28.473  1.00  0.00     0.076 H 
ATOM      3  H   UNL     1     -47.484  35.880  28.290  1.00  0.00     0.076 H 
ENDROOT
BRANCH   1   4
ATOM      4  O   UNL     1     -46.430  35.838  26.551  1.00  0.00    -0.489 OA
BRANCH   4   5
ATOM      5  C   UNL     1     -47.153  34.726  26.216  1.00  0.00     0.122 A 
ATOM      6  C   UNL     1     -46.876  30.567  23.902  1.00  0.00     0.126 A 
ATOM      7  C   UNL     1     -48.187  30.244  24.237  1.00  0.00    -0.019 A 
ATOM      8  N   UNL     1     -46.309  31.721  24.309  1.00  0.00    -0.231 NA
ATOM      9  C   UNL     1     -48.939  31.136  24.992  1.00  0.00    -0.049 A 
ATOM     10  H   UNL     1     -48.616  29.298  23.924  1.00  0.00     0.066 H 
ATOM     11  C   UNL     1     -47.030  32.589  25.043  1.00  0.00     0.076 A 
ATOM     12  C   UNL     1     -48.365  32.338  25.411  1.00  0.00     0.001 A 
ATOM     13  H   UNL     1     -49.962  30.883  25.257  1.00  0.00     0.063 H 
ATOM     14  C   UNL     1     -46.451  33.780  25.460  1.00  0.00     0.007 A 
ATOM     15  C   UNL     1     -49.076  33.274  26.179  1.00  0.00    -0.049 A 
ATOM     16  H   UNL     1     -45.418  33.978  25.185  1.00  0.00     0.069 H 
ATOM     17  C   UNL     1     -48.469  34.464  26.582  1.00  0.00    -0.019 A 
ATOM     18  H   UNL     1     -50.104  33.077  26.476  1.00  0.00     0.063 H 
ATOM     19  H   UNL     1     -49.046  35.150  27.194  1.00  0.00     0.066 H 
BRANCH   6  20
ATOM     20  N   UNL     1     -46.138  29.629  23.158  1.00  0.00    -0.373 N 
ATOM     21  H   UNL     1     -46.678  28.773  23.080  1.00  0.00     0.161 HD
BRANCH  20  22
ATOM     22  C   UNL     1     -45.703  30.113  21.856  1.00  0.00     0.005 C 
ATOM     23  H   UNL     1     -46.253  31.012  21.556  1.00  0.00     0.045 H 
ATOM     24  H   UNL     1     -44.627  30.315  21.840  1.00  0.00     0.045 H 
ATOM     25  H   UNL     1     -45.901  29.340  21.107  1.00  0.00     0.045 H 
ENDBRANCH  20  22
ENDBRANCH   6  20
ENDBRANCH   4   5
ENDBRANCH   1   4
BRANCH   1  26
ATOM     26  C   UNL     1     -47.171  37.889  27.700  1.00  0.00    -0.009 A 
ATOM     27  C   UNL     1     -48.463  38.250  28.094  1.00  0.00    -0.055 A 
ATOM     28  C   UNL     1     -46.296  38.889  27.234  1.00  0.00    -0.031 A 
ATOM     29  C   UNL     1     -48.883  39.574  27.994  1.00  0.00    -0.060 A 
ATOM     30  H   UNL     1     -49.154  37.500  28.474  1.00  0.00     0.063 H 
ATOM     31  C   UNL     1     -46.707  40.232  27.128  1.00  0.00     0.047 A 
ATOM     32  H   UNL     1     -45.301  38.580  26.930  1.00  0.00     0.065 H 
ATOM     33  C   UNL     1     -48.015  40.557  27.511  1.00  0.00    -0.038 A 
ATOM     34  H   UNL     1     -49.891  39.846  28.297  1.00  0.00     0.062 H 
ATOM     35  H   UNL     1     -48.393  41.572  27.480  1.00  0.00     0.064 H 
BRANCH  31  36
ATOM     36  N   UNL     1     -45.799  41.235  26.644  1.00  0.00    -0.301 N 
ATOM     37  C   UNL     1     -46.098  42.165  25.660  1.00  0.00     0.015 A 
ATOM     38  C   UNL     1     -44.482  41.473  27.040  1.00  0.00     0.150 A 
ATOM     39  C   UNL     1     -45.016  42.995  25.427  1.00  0.00    -0.013 A 
ATOM     40  H   UNL     1     -47.060  42.162  25.169  1.00  0.00     0.083 H 
ATOM     41  C   UNL     1     -43.971  42.534  26.292  1.00  0.00     0.065 A 
ATOM     42  N   UNL     1     -43.805  40.815  28.004  1.00  0.00    -0.218 NA
ATOM     43  C   UNL     1     -42.635  42.896  26.545  1.00  0.00     0.136 A 
ATOM     44  C   UNL     1     -42.558  41.266  28.170  1.00  0.00     0.120 A 
ATOM     45  N   UNL     1     -41.942  42.248  27.496  1.00  0.00    -0.219 NA
ATOM     46  H   UNL     1     -41.970  40.776  28.940  1.00  0.00     0.106 H 
BRANCH  39  47
ATOM     47  C   UNL     1     -44.953  44.136  24.455  1.00  0.00    -0.014 C 
ATOM     48  C   UNL     1     -46.296  44.787  24.112  1.00  0.00    -0.046 C 
ATOM     49  C   UNL     1     -44.374  43.741  23.089  1.00  0.00    -0.046 C 
ATOM     50  H   UNL     1     -44.324  44.929  24.880  1.00  0.00     0.035 H 
ATOM     51  C   UNL     1     -45.978  45.560  22.843  1.00  0.00    -0.053 C 
ATOM     52  H   UNL     1     -47.076  44.047  23.903  1.00  0.00     0.027 H 
ATOM     53  H   UNL     1     -46.657  45.439  24.914  1.00  0.00     0.027 H 
ATOM     54  C   UNL     1     -45.095  44.606  22.052  1.00  0.00    -0.053 C 
ATOM     55  H   UNL     1     -44.533  42.679  22.860  1.00  0.00     0.027 H 
ATOM     56  H   UNL     1     -43.293  43.913  23.062  1.00  0.00     0.027 H 
ATOM     57  H   UNL     1     -46.877  45.848  22.291  1.00  0.00     0.027 H 
ATOM     58  H   UNL     1     -45.420  46.473  23.087  1.00  0.00     0.027 H 
ATOM     59  H   UNL     1     -44.392  45.143  21.407  1.00  0.00     0.027 H 
ATOM     60  H   UNL     1     -45.712  43.969  21.409  1.00  0.00     0.027 H 
ENDBRANCH  39  47
BRANCH  43  61
ATOM     61  N   UNL     1     -41.941  43.885  25.856  1.00  0.00    -0.383 N 
ATOM     62  H   UNL     1     -42.493  44.349  25.150  1.00  0.00     0.158 HD
ATOM     63  H   UNL     1     -41.059  43.505  25.528  1.00  0.00     0.158 HD
ENDBRANCH  43  61
ENDBRANCH  31  36
ENDBRANCH   1  26
TORSDOF 8
ENDMDL
