MODEL 1
REMARK VINA RESULT:     -10.5      0.000      0.000
REMARK SMILES O=C(NCc1ccc2cc(CN3CC(OCC(F)(F)F)C3)[nH]c2c1)c1cc(=O)n2ccccc2n1
REMARK SMILES IDX 11 1 10 4 5 5 6 6 24 7 7 8 23 10 8 12 22 14 9 15 4 18 3 21
REMARK SMILES IDX 1 22 2 23 25 25 26 26 35 27 27 28 34 30 28 31 29 32 33 33
REMARK SMILES IDX 30 34 32 35 31 37 12 41 13 42 21 43 14 44 15 50 16 51 17 54
REMARK SMILES IDX 18 55 19 56 20 57
REMARK H PARENT 11 2 11 3 6 9 24 11 7 13 22 16 9 17 4 19 4 20 3 24 26 29 33 36
REMARK H PARENT 30 38 32 39 31 40 13 45 13 46 21 47 21 48 14 49 16 52 16 53
REMARK Flexibility Score: inf
ROOT
ATOM      1  C   UNL     1     -49.423  30.665  24.866  1.00  0.00     0.039 C 
ATOM      2  H   UNL     1     -50.136  30.384  25.652  1.00  0.00     0.050 H 
ATOM      3  H   UNL     1     -50.019  30.878  23.968  1.00  0.00     0.050 H 
ENDROOT
BRANCH   1   4
ATOM      4  C   UNL     1     -48.710  31.895  25.322  1.00  0.00     0.030 A 
ATOM      5  C   UNL     1     -47.584  35.982  27.166  1.00  0.00    -0.027 A 
ATOM      6  C   UNL     1     -46.321  35.614  26.684  1.00  0.00    -0.057 A 
ATOM      7  C   UNL     1     -48.687  35.133  26.969  1.00  0.00    -0.033 A 
ATOM      8  C   UNL     1     -46.127  34.396  26.019  1.00  0.00    -0.052 A 
ATOM      9  H   UNL     1     -45.470  36.277  26.823  1.00  0.00     0.063 H 
ATOM     10  C   UNL     1     -48.472  33.919  26.304  1.00  0.00     0.046 A 
ATOM     11  H   UNL     1     -49.676  35.412  27.321  1.00  0.00     0.065 H 
ATOM     12  C   UNL     1     -47.221  33.533  25.827  1.00  0.00    -0.000 A 
ATOM     13  H   UNL     1     -45.141  34.122  25.655  1.00  0.00     0.063 H 
ATOM     14  N   UNL     1     -49.355  32.913  25.986  1.00  0.00    -0.357 N 
ATOM     15  C   UNL     1     -47.382  32.261  25.215  1.00  0.00    -0.032 A 
ATOM     16  H   UNL     1     -50.339  32.930  26.214  1.00  0.00     0.166 HD
ATOM     17  H   UNL     1     -46.610  31.672  24.736  1.00  0.00     0.065 H 
BRANCH   5  18
ATOM     18  C   UNL     1     -47.777  37.311  27.850  1.00  0.00     0.043 C 
ATOM     19  H   UNL     1     -48.729  37.768  27.552  1.00  0.00     0.054 H 
ATOM     20  H   UNL     1     -47.814  37.188  28.939  1.00  0.00     0.054 H 
BRANCH  18  21
ATOM     21  N   UNL     1     -46.699  38.208  27.535  1.00  0.00    -0.347 N 
ATOM     22  O   UNL     1     -48.031  39.984  26.951  1.00  0.00    -0.268 OA
ATOM     23  C   UNL     1     -46.922  39.506  27.152  1.00  0.00     0.270 C 
ATOM     24  H   UNL     1     -45.741  37.951  27.756  1.00  0.00     0.164 HD
BRANCH  23  25
ATOM     25  C   UNL     1     -45.641  40.294  27.016  1.00  0.00     0.136 A 
ATOM     26  C   UNL     1     -44.729  40.118  27.974  1.00  0.00     0.035 A 
ATOM     27  N   UNL     1     -45.490  41.130  25.933  1.00  0.00    -0.225 NA
ATOM     28  C   UNL     1     -43.469  40.865  27.880  1.00  0.00     0.258 A 
ATOM     29  H   UNL     1     -44.859  39.456  28.821  1.00  0.00     0.071 H 
ATOM     30  C   UNL     1     -44.374  41.789  25.853  1.00  0.00     0.140 A 
ATOM     31  O   UNL     1     -42.623  40.710  28.760  1.00  0.00    -0.269 OA
ATOM     32  N   UNL     1     -43.341  41.700  26.780  1.00  0.00    -0.268 N 
ATOM     33  C   UNL     1     -44.168  42.706  24.697  1.00  0.00    -0.019 A 
ATOM     34  C   UNL     1     -42.174  42.440  26.622  1.00  0.00     0.014 A 
ATOM     35  C   UNL     1     -43.027  43.397  24.588  1.00  0.00    -0.057 A 
ATOM     36  H   UNL     1     -44.967  42.780  23.969  1.00  0.00     0.066 H 
ATOM     37  C   UNL     1     -41.995  43.262  25.581  1.00  0.00    -0.045 A 
ATOM     38  H   UNL     1     -41.408  42.322  27.385  1.00  0.00     0.082 H 
ATOM     39  H   UNL     1     -42.858  44.069  23.753  1.00  0.00     0.062 H 
ATOM     40  H   UNL     1     -41.080  43.834  25.467  1.00  0.00     0.064 H 
ENDBRANCH  23  25
ENDBRANCH  18  21
ENDBRANCH   5  18
ENDBRANCH   1   4
BRANCH   1  41
ATOM     41  N   UNL     1     -48.477  29.559  24.669  1.00  0.00    -0.292 NA
ATOM     42  C   UNL     1     -49.087  28.445  23.912  1.00  0.00     0.026 C 
ATOM     43  C   UNL     1     -48.423  28.700  25.874  1.00  0.00     0.026 C 
ATOM     44  C   UNL     1     -49.446  27.733  25.236  1.00  0.00     0.083 C 
ATOM     45  H   UNL     1     -48.357  27.901  23.299  1.00  0.00     0.046 H 
ATOM     46  H   UNL     1     -49.941  28.687  23.271  1.00  0.00     0.046 H 
ATOM     47  H   UNL     1     -48.739  29.161  26.817  1.00  0.00     0.046 H 
ATOM     48  H   UNL     1     -47.434  28.254  26.035  1.00  0.00     0.046 H 
ATOM     49  H   UNL     1     -50.466  27.945  25.579  1.00  0.00     0.063 H 
BRANCH  44  50
ATOM     50  O   UNL     1     -49.149  26.321  25.357  1.00  0.00    -0.366 OA
BRANCH  50  51
ATOM     51  C   UNL     1     -48.639  25.863  26.619  1.00  0.00     0.143 C 
ATOM     52  H   UNL     1     -48.703  26.678  27.346  1.00  0.00     0.066 H 
ATOM     53  H   UNL     1     -49.319  25.075  26.959  1.00  0.00     0.066 H 
BRANCH  51  54
ATOM     54  C   UNL     1     -47.221  25.302  26.582  1.00  0.00     0.411 C 
ATOM     55  F   UNL     1     -46.799  25.112  25.309  1.00  0.00    -0.168 F 
ATOM     56  F   UNL     1     -47.124  24.122  27.232  1.00  0.00    -0.168 F 
ATOM     57  F   UNL     1     -46.354  26.163  27.164  1.00  0.00    -0.168 F 
ENDBRANCH  51  54
ENDBRANCH  50  51
ENDBRANCH  44  50
ENDBRANCH   1  41
TORSDOF 8
ENDMDL
MODEL 2
REMARK VINA RESULT:     -10.5      1.341      2.304
REMARK SMILES O=C(NCc1ccc2cc(CN3CC(OCC(F)(F)F)C3)[nH]c2c1)c1cc(=O)n2ccccc2n1
REMARK SMILES IDX 11 1 10 4 5 5 6 6 24 7 7 8 23 10 8 12 22 14 9 15 4 18 3 21
REMARK SMILES IDX 1 22 2 23 25 25 26 26 35 27 27 28 34 30 28 31 29 32 33 33
REMARK SMILES IDX 30 34 32 35 31 37 12 41 13 42 21 43 14 44 15 50 16 51 17 54
REMARK SMILES IDX 18 55 19 56 20 57
REMARK H PARENT 11 2 11 3 6 9 24 11 7 13 22 16 9 17 4 19 4 20 3 24 26 29 33 36
REMARK H PARENT 30 38 32 39 31 40 13 45 13 46 21 47 21 48 14 49 16 52 16 53
REMARK Flexibility Score: inf
ROOT
ATOM      1  C   UNL     1     -47.103  30.587  24.108  1.00  0.00     0.039 C 
ATOM      2  H   UNL     1     -46.849  30.899  23.086  1.00  0.00     0.050 H 
ATOM      3  H   UNL     1     -46.272  29.961  24.458  1.00  0.00     0.050 H 
ENDROOT
BRANCH   1   4
ATOM      4  C   UNL     1     -47.212  31.822  24.941  1.00  0.00     0.030 A 
ATOM      5  C   UNL     1     -46.371  35.467  27.658  1.00  0.00    -0.027 A 
ATOM      6  C   UNL     1     -47.741  35.672  27.449  1.00  0.00    -0.057 A 
ATOM      7  C   UNL     1     -45.730  34.359  27.078  1.00  0.00    -0.033 A 
ATOM      8  C   UNL     1     -48.491  34.799  26.650  1.00  0.00    -0.052 A 
ATOM      9  H   UNL     1     -48.242  36.520  27.910  1.00  0.00     0.063 H 
ATOM     10  C   UNL     1     -46.496  33.498  26.281  1.00  0.00     0.046 A 
ATOM     11  H   UNL     1     -44.672  34.177  27.244  1.00  0.00     0.065 H 
ATOM     12  C   UNL     1     -47.856  33.693  26.054  1.00  0.00    -0.000 A 
ATOM     13  H   UNL     1     -49.551  34.973  26.494  1.00  0.00     0.063 H 
ATOM     14  N   UNL     1     -46.129  32.361  25.597  1.00  0.00    -0.357 N 
ATOM     15  C   UNL     1     -48.295  32.637  25.212  1.00  0.00    -0.032 A 
ATOM     16  H   UNL     1     -45.192  31.983  25.587  1.00  0.00     0.166 HD
ATOM     17  H   UNL     1     -49.300  32.480  24.843  1.00  0.00     0.065 H 
BRANCH   5  18
ATOM     18  C   UNL     1     -45.591  36.401  28.547  1.00  0.00     0.043 C 
ATOM     19  H   UNL     1     -46.065  36.488  29.532  1.00  0.00     0.054 H 
ATOM     20  H   UNL     1     -44.576  36.021  28.717  1.00  0.00     0.054 H 
BRANCH  18  21
ATOM     21  N   UNL     1     -45.489  37.705  27.951  1.00  0.00    -0.347 N 
ATOM     22  O   UNL     1     -44.276  38.651  29.656  1.00  0.00    -0.268 OA
ATOM     23  C   UNL     1     -44.787  38.723  28.544  1.00  0.00     0.270 C 
ATOM     24  H   UNL     1     -45.790  37.852  26.992  1.00  0.00     0.164 HD
BRANCH  23  25
ATOM     25  C   UNL     1     -44.697  39.949  27.669  1.00  0.00     0.136 A 
ATOM     26  C   UNL     1     -45.841  40.383  27.134  1.00  0.00     0.035 A 
ATOM     27  N   UNL     1     -43.468  40.538  27.478  1.00  0.00    -0.225 NA
ATOM     28  C   UNL     1     -45.799  41.573  26.276  1.00  0.00     0.258 A 
ATOM     29  H   UNL     1     -46.802  39.911  27.292  1.00  0.00     0.071 H 
ATOM     30  C   UNL     1     -43.436  41.591  26.719  1.00  0.00     0.140 A 
ATOM     31  O   UNL     1     -46.848  41.980  25.777  1.00  0.00    -0.269 OA
ATOM     32  N   UNL     1     -44.550  42.148  26.100  1.00  0.00    -0.268 N 
ATOM     33  C   UNL     1     -42.126  42.262  26.485  1.00  0.00    -0.019 A 
ATOM     34  C   UNL     1     -44.431  43.281  25.300  1.00  0.00     0.014 A 
ATOM     35  C   UNL     1     -42.062  43.350  25.708  1.00  0.00    -0.057 A 
ATOM     36  H   UNL     1     -41.253  41.835  26.965  1.00  0.00     0.066 H 
ATOM     37  C   UNL     1     -43.251  43.879  25.095  1.00  0.00    -0.045 A 
ATOM     38  H   UNL     1     -45.342  43.662  24.847  1.00  0.00     0.082 H 
ATOM     39  H   UNL     1     -41.117  43.853  25.526  1.00  0.00     0.062 H 
ATOM     40  H   UNL     1     -43.170  44.762  24.469  1.00  0.00     0.064 H 
ENDBRANCH  23  25
ENDBRANCH  18  21
ENDBRANCH   5  18
ENDBRANCH   1   4
BRANCH   1  41
ATOM     41  N   UNL     1     -48.383  29.867  24.078  1.00  0.00    -0.292 NA
ATOM     42  C   UNL     1     -48.672  29.213  25.372  1.00  0.00     0.026 C 
ATOM     43  C   UNL     1     -48.215  28.536  23.451  1.00  0.00     0.026 C 
ATOM     44  C   UNL     1     -48.063  27.892  24.849  1.00  0.00     0.083 C 
ATOM     45  H   UNL     1     -49.747  29.152  25.583  1.00  0.00     0.046 H 
ATOM     46  H   UNL     1     -48.183  29.627  26.260  1.00  0.00     0.046 H 
ATOM     47  H   UNL     1     -47.355  28.415  22.783  1.00  0.00     0.046 H 
ATOM     48  H   UNL     1     -49.109  28.206  22.908  1.00  0.00     0.046 H 
ATOM     49  H   UNL     1     -47.006  27.766  25.118  1.00  0.00     0.063 H 
BRANCH  44  50
ATOM     50  O   UNL     1     -48.797  26.664  25.067  1.00  0.00    -0.366 OA
BRANCH  50  51
ATOM     51  C   UNL     1     -48.095  25.581  25.695  1.00  0.00     0.143 C 
ATOM     52  H   UNL     1     -48.816  24.945  26.219  1.00  0.00     0.066 H 
ATOM     53  H   UNL     1     -47.666  24.980  24.887  1.00  0.00     0.066 H 
BRANCH  51  54
ATOM     54  C   UNL     1     -46.975  25.996  26.644  1.00  0.00     0.411 C 
ATOM     55  F   UNL     1     -47.388  26.959  27.502  1.00  0.00    -0.168 F 
ATOM     56  F   UNL     1     -45.896  26.465  25.982  1.00  0.00    -0.168 F 
ATOM     57  F   UNL     1     -46.571  24.943  27.393  1.00  0.00    -0.168 F 
ENDBRANCH  51  54
ENDBRANCH  50  51
ENDBRANCH  44  50
ENDBRANCH   1  41
TORSDOF 8
ENDMDL
MODEL 3
REMARK VINA RESULT:      -9.8      1.650      2.213
REMARK SMILES O=C(NCc1ccc2cc(CN3CC(OCC(F)(F)F)C3)[nH]c2c1)c1cc(=O)n2ccccc2n1
REMARK SMILES IDX 11 1 10 4 5 5 6 6 24 7 7 8 23 10 8 12 22 14 9 15 4 18 3 21
REMARK SMILES IDX 1 22 2 23 25 25 26 26 35 27 27 28 34 30 28 31 29 32 33 33
REMARK SMILES IDX 30 34 32 35 31 37 12 41 13 42 21 43 14 44 15 50 16 51 17 54
REMARK SMILES IDX 18 55 19 56 20 57
REMARK H PARENT 11 2 11 3 6 9 24 11 7 13 22 16 9 17 4 19 4 20 3 24 26 29 33 36
REMARK H PARENT 30 38 32 39 31 40 13 45 13 46 21 47 21 48 14 49 16 52 16 53
REMARK Flexibility Score: inf
ROOT
ATOM      1  C   UNL     1     -46.583  32.162  24.434  1.00  0.00     0.039 C 
ATOM      2  H   UNL     1     -46.168  32.660  23.548  1.00  0.00     0.050 H 
ATOM      3  H   UNL     1     -45.922  31.313  24.652  1.00  0.00     0.050 H 
ENDROOT
BRANCH   1   4
ATOM      4  C   UNL     1     -46.557  33.146  25.557  1.00  0.00     0.030 A 
ATOM      5  C   UNL     1     -46.837  36.945  28.177  1.00  0.00    -0.027 A 
ATOM      6  C   UNL     1     -46.450  36.033  29.168  1.00  0.00    -0.057 A 
ATOM      7  C   UNL     1     -46.994  36.513  26.849  1.00  0.00    -0.033 A 
ATOM      8  C   UNL     1     -46.233  34.683  28.866  1.00  0.00    -0.052 A 
ATOM      9  H   UNL     1     -46.313  36.369  30.195  1.00  0.00     0.063 H 
ATOM     10  C   UNL     1     -46.775  35.159  26.567  1.00  0.00     0.046 A 
ATOM     11  H   UNL     1     -47.277  37.211  26.066  1.00  0.00     0.065 H 
ATOM     12  C   UNL     1     -46.401  34.237  27.542  1.00  0.00    -0.000 A 
ATOM     13  H   UNL     1     -45.938  33.988  29.646  1.00  0.00     0.063 H 
ATOM     14  N   UNL     1     -46.863  34.475  25.376  1.00  0.00    -0.357 N 
ATOM     15  C   UNL     1     -46.268  32.978  26.898  1.00  0.00    -0.032 A 
ATOM     16  H   UNL     1     -47.118  34.901  24.495  1.00  0.00     0.166 HD
ATOM     17  H   UNL     1     -45.983  32.042  27.362  1.00  0.00     0.065 H 
BRANCH   5  18
ATOM     18  C   UNL     1     -47.034  38.399  28.518  1.00  0.00     0.043 C 
ATOM     19  H   UNL     1     -48.016  38.749  28.180  1.00  0.00     0.054 H 
ATOM     20  H   UNL     1     -47.000  38.554  29.604  1.00  0.00     0.054 H 
BRANCH  18  21
ATOM     21  N   UNL     1     -46.007  39.207  27.917  1.00  0.00    -0.347 N 
ATOM     22  O   UNL     1     -47.352  40.134  26.302  1.00  0.00    -0.268 OA
ATOM     23  C   UNL     1     -46.270  40.056  26.873  1.00  0.00     0.270 C 
ATOM     24  H   UNL     1     -45.100  39.295  28.365  1.00  0.00     0.164 HD
BRANCH  23  25
ATOM     25  C   UNL     1     -45.077  40.904  26.505  1.00  0.00     0.136 A 
ATOM     26  C   UNL     1     -44.061  40.910  27.372  1.00  0.00     0.035 A 
ATOM     27  N   UNL     1     -45.102  41.606  25.321  1.00  0.00    -0.225 NA
ATOM     28  C   UNL     1     -42.880  41.721  27.053  1.00  0.00     0.258 A 
ATOM     29  H   UNL     1     -44.053  40.353  28.300  1.00  0.00     0.071 H 
ATOM     30  C   UNL     1     -44.055  42.321  25.043  1.00  0.00     0.140 A 
ATOM     31  O   UNL     1     -41.940  41.735  27.847  1.00  0.00    -0.269 OA
ATOM     32  N   UNL     1     -42.930  42.418  25.855  1.00  0.00    -0.268 N 
ATOM     33  C   UNL     1     -44.038  43.097  23.771  1.00  0.00    -0.019 A 
ATOM     34  C   UNL     1     -41.846  43.208  25.484  1.00  0.00     0.014 A 
ATOM     35  C   UNL     1     -42.972  43.843  23.457  1.00  0.00    -0.057 A 
ATOM     36  H   UNL     1     -44.910  43.026  23.131  1.00  0.00     0.066 H 
ATOM     37  C   UNL     1     -41.838  43.902  24.339  1.00  0.00    -0.045 A 
ATOM     38  H   UNL     1     -41.001  43.238  26.167  1.00  0.00     0.082 H 
ATOM     39  H   UNL     1     -42.942  44.415  22.534  1.00  0.00     0.062 H 
ATOM     40  H   UNL     1     -40.988  44.515  24.060  1.00  0.00     0.064 H 
ENDBRANCH  23  25
ENDBRANCH  18  21
ENDBRANCH   5  18
ENDBRANCH   1   4
BRANCH   1  41
ATOM     41  N   UNL     1     -47.961  31.747  24.140  1.00  0.00    -0.292 NA
ATOM     42  C   UNL     1     -48.650  31.245  25.348  1.00  0.00     0.026 C 
ATOM     43  C   UNL     1     -47.981  30.380  23.569  1.00  0.00     0.026 C 
ATOM     44  C   UNL     1     -48.268  29.795  24.971  1.00  0.00     0.083 C 
ATOM     45  H   UNL     1     -49.730  31.437  25.329  1.00  0.00     0.046 H 
ATOM     46  H   UNL     1     -48.270  31.585  26.316  1.00  0.00     0.046 H 
ATOM     47  H   UNL     1     -47.054  30.034  23.098  1.00  0.00     0.046 H 
ATOM     48  H   UNL     1     -48.797  30.230  22.853  1.00  0.00     0.046 H 
ATOM     49  H   UNL     1     -47.347  29.449  25.457  1.00  0.00     0.063 H 
BRANCH  44  50
ATOM     50  O   UNL     1     -49.295  28.776  25.037  1.00  0.00    -0.366 OA
BRANCH  50  51
ATOM     51  C   UNL     1     -49.091  27.697  25.962  1.00  0.00     0.143 C 
ATOM     52  H   UNL     1     -48.058  27.728  26.324  1.00  0.00     0.066 H 
ATOM     53  H   UNL     1     -49.739  27.899  26.821  1.00  0.00     0.066 H 
BRANCH  51  54
ATOM     54  C   UNL     1     -49.416  26.307  25.421  1.00  0.00     0.411 C 
ATOM     55  F   UNL     1     -50.394  25.714  26.147  1.00  0.00    -0.168 F 
ATOM     56  F   UNL     1     -48.339  25.493  25.433  1.00  0.00    -0.168 F 
ATOM     57  F   UNL     1     -49.858  26.385  24.145  1.00  0.00    -0.168 F 
ENDBRANCH  51  54
ENDBRANCH  50  51
ENDBRANCH  44  50
ENDBRANCH   1  41
TORSDOF 8
ENDMDL
MODEL 4
REMARK VINA RESULT:      -9.4      5.763     12.947
REMARK SMILES O=C(NCc1ccc2cc(CN3CC(OCC(F)(F)F)C3)[nH]c2c1)c1cc(=O)n2ccccc2n1
REMARK SMILES IDX 11 1 10 4 5 5 6 6 24 7 7 8 23 10 8 12 22 14 9 15 4 18 3 21
REMARK SMILES IDX 1 22 2 23 25 25 26 26 35 27 27 28 34 30 28 31 29 32 33 33
REMARK SMILES IDX 30 34 32 35 31 37 12 41 13 42 21 43 14 44 15 50 16 51 17 54
REMARK SMILES IDX 18 55 19 56 20 57
REMARK H PARENT 11 2 11 3 6 9 24 11 7 13 22 16 9 17 4 19 4 20 3 24 26 29 33 36
REMARK H PARENT 30 38 32 39 31 40 13 45 13 46 21 47 21 48 14 49 16 52 16 53
REMARK Flexibility Score: inf
ROOT
ATOM      1  C   UNL     1     -45.293  39.234  28.328  1.00  0.00     0.039 C 
ATOM      2  H   UNL     1     -46.148  39.901  28.161  1.00  0.00     0.050 H 
ATOM      3  H   UNL     1     -45.038  39.315  29.393  1.00  0.00     0.050 H 
ENDROOT
BRANCH   1   4
ATOM      4  C   UNL     1     -45.735  37.845  28.002  1.00  0.00     0.030 A 
ATOM      5  C   UNL     1     -48.048  34.121  26.536  1.00  0.00    -0.027 A 
ATOM      6  C   UNL     1     -46.913  33.477  27.045  1.00  0.00    -0.057 A 
ATOM      7  C   UNL     1     -48.157  35.520  26.615  1.00  0.00    -0.033 A 
ATOM      8  C   UNL     1     -45.864  34.204  27.621  1.00  0.00    -0.052 A 
ATOM      9  H   UNL     1     -46.834  32.392  26.998  1.00  0.00     0.063 H 
ATOM     10  C   UNL     1     -47.097  36.230  27.193  1.00  0.00     0.046 A 
ATOM     11  H   UNL     1     -49.038  36.033  26.241  1.00  0.00     0.065 H 
ATOM     12  C   UNL     1     -45.957  35.607  27.695  1.00  0.00    -0.000 A 
ATOM     13  H   UNL     1     -44.989  33.691  28.008  1.00  0.00     0.063 H 
ATOM     14  N   UNL     1     -46.939  37.583  27.390  1.00  0.00    -0.357 N 
ATOM     15  C   UNL     1     -45.109  36.628  28.198  1.00  0.00    -0.032 A 
ATOM     16  H   UNL     1     -47.620  38.279  27.119  1.00  0.00     0.166 HD
ATOM     17  H   UNL     1     -44.141  36.494  28.665  1.00  0.00     0.065 H 
BRANCH   5  18
ATOM     18  C   UNL     1     -49.179  33.316  25.949  1.00  0.00     0.043 C 
ATOM     19  H   UNL     1     -50.080  33.399  26.569  1.00  0.00     0.054 H 
ATOM     20  H   UNL     1     -49.446  33.687  24.952  1.00  0.00     0.054 H 
BRANCH  18  21
ATOM     21  N   UNL     1     -48.810  31.931  25.830  1.00  0.00    -0.347 N 
ATOM     22  O   UNL     1     -49.280  31.753  23.589  1.00  0.00    -0.268 OA
ATOM     23  C   UNL     1     -48.847  31.270  24.629  1.00  0.00     0.270 C 
ATOM     24  H   UNL     1     -48.348  31.459  26.601  1.00  0.00     0.164 HD
BRANCH  23  25
ATOM     25  C   UNL     1     -48.280  29.874  24.721  1.00  0.00     0.136 A 
ATOM     26  C   UNL     1     -47.282  29.581  23.884  1.00  0.00     0.035 A 
ATOM     27  N   UNL     1     -48.810  29.003  25.646  1.00  0.00    -0.225 NA
ATOM     28  C   UNL     1     -46.700  28.234  23.941  1.00  0.00     0.258 A 
ATOM     29  H   UNL     1     -46.872  30.275  23.162  1.00  0.00     0.071 H 
ATOM     30  C   UNL     1     -48.292  27.814  25.693  1.00  0.00     0.140 A 
ATOM     31  O   UNL     1     -45.781  27.954  23.172  1.00  0.00    -0.269 OA
ATOM     32  N   UNL     1     -47.252  27.376  24.881  1.00  0.00    -0.268 N 
ATOM     33  C   UNL     1     -48.836  26.838  26.679  1.00  0.00    -0.019 A 
ATOM     34  C   UNL     1     -46.752  26.083  24.995  1.00  0.00     0.014 A 
ATOM     35  C   UNL     1     -48.322  25.604  26.752  1.00  0.00    -0.057 A 
ATOM     36  H   UNL     1     -49.646  27.171  27.317  1.00  0.00     0.066 H 
ATOM     37  C   UNL     1     -47.245  25.211  25.883  1.00  0.00    -0.045 A 
ATOM     38  H   UNL     1     -45.939  25.808  24.327  1.00  0.00     0.082 H 
ATOM     39  H   UNL     1     -48.704  24.880  27.464  1.00  0.00     0.062 H 
ATOM     40  H   UNL     1     -46.847  24.205  25.963  1.00  0.00     0.064 H 
ENDBRANCH  23  25
ENDBRANCH  18  21
ENDBRANCH   5  18
ENDBRANCH   1   4
BRANCH   1  41
ATOM     41  N   UNL     1     -44.191  39.648  27.448  1.00  0.00    -0.292 NA
ATOM     42  C   UNL     1     -43.493  40.842  27.971  1.00  0.00     0.026 C 
ATOM     43  C   UNL     1     -44.705  40.452  26.316  1.00  0.00     0.026 C 
ATOM     44  C   UNL     1     -44.374  41.753  27.085  1.00  0.00     0.083 C 
ATOM     45  H   UNL     1     -42.429  40.859  27.705  1.00  0.00     0.046 H 
ATOM     46  H   UNL     1     -43.569  41.032  29.047  1.00  0.00     0.046 H 
ATOM     47  H   UNL     1     -45.762  40.317  26.060  1.00  0.00     0.046 H 
ATOM     48  H   UNL     1     -44.118  40.320  25.399  1.00  0.00     0.046 H 
ATOM     49  H   UNL     1     -45.255  42.145  27.607  1.00  0.00     0.063 H 
BRANCH  44  50
ATOM     50  O   UNL     1     -43.726  42.797  26.319  1.00  0.00    -0.366 OA
BRANCH  50  51
ATOM     51  C   UNL     1     -44.246  44.129  26.453  1.00  0.00     0.143 C 
ATOM     52  H   UNL     1     -44.520  44.300  27.499  1.00  0.00     0.066 H 
ATOM     53  H   UNL     1     -43.418  44.808  26.223  1.00  0.00     0.066 H 
BRANCH  51  54
ATOM     54  C   UNL     1     -45.421  44.463  25.540  1.00  0.00     0.411 C 
ATOM     55  F   UNL     1     -46.527  44.777  26.257  1.00  0.00    -0.168 F 
ATOM     56  F   UNL     1     -45.736  43.437  24.721  1.00  0.00    -0.168 F 
ATOM     57  F   UNL     1     -45.132  45.533  24.764  1.00  0.00    -0.168 F 
ENDBRANCH  51  54
ENDBRANCH  50  51
ENDBRANCH  44  50
ENDBRANCH   1  41
TORSDOF 8
ENDMDL
MODEL 5
REMARK VINA RESULT:      -8.9      3.382      6.357
REMARK SMILES O=C(NCc1ccc2cc(CN3CC(OCC(F)(F)F)C3)[nH]c2c1)c1cc(=O)n2ccccc2n1
REMARK SMILES IDX 11 1 10 4 5 5 6 6 24 7 7 8 23 10 8 12 22 14 9 15 4 18 3 21
REMARK SMILES IDX 1 22 2 23 25 25 26 26 35 27 27 28 34 30 28 31 29 32 33 33
REMARK SMILES IDX 30 34 32 35 31 37 12 41 13 42 21 43 14 44 15 50 16 51 17 54
REMARK SMILES IDX 18 55 19 56 20 57
REMARK H PARENT 11 2 11 3 6 9 24 11 7 13 22 16 9 17 4 19 4 20 3 24 26 29 33 36
REMARK H PARENT 30 38 32 39 31 40 13 45 13 46 21 47 21 48 14 49 16 52 16 53
REMARK Flexibility Score: inf
ROOT
ATOM      1  C   UNL     1     -47.117  36.961  26.842  1.00  0.00     0.039 C 
ATOM      2  H   UNL     1     -47.966  37.625  26.634  1.00  0.00     0.050 H 
ATOM      3  H   UNL     1     -46.753  36.607  25.868  1.00  0.00     0.050 H 
ENDROOT
BRANCH   1   4
ATOM      4  C   UNL     1     -46.067  37.774  27.525  1.00  0.00     0.030 A 
ATOM      5  C   UNL     1     -42.958  40.995  28.682  1.00  0.00    -0.027 A 
ATOM      6  C   UNL     1     -42.839  40.173  29.810  1.00  0.00    -0.057 A 
ATOM      7  C   UNL     1     -43.851  40.650  27.653  1.00  0.00    -0.033 A 
ATOM      8  C   UNL     1     -43.613  39.013  29.946  1.00  0.00    -0.052 A 
ATOM      9  H   UNL     1     -42.137  40.430  30.601  1.00  0.00     0.063 H 
ATOM     10  C   UNL     1     -44.618  39.489  27.808  1.00  0.00     0.046 A 
ATOM     11  H   UNL     1     -43.942  41.268  26.763  1.00  0.00     0.065 H 
ATOM     12  C   UNL     1     -44.520  38.666  28.928  1.00  0.00    -0.000 A 
ATOM     13  H   UNL     1     -43.514  38.389  30.829  1.00  0.00     0.063 H 
ATOM     14  N   UNL     1     -45.559  38.928  26.975  1.00  0.00    -0.357 N 
ATOM     15  C   UNL     1     -45.434  37.595  28.741  1.00  0.00    -0.032 A 
ATOM     16  H   UNL     1     -45.831  39.319  26.084  1.00  0.00     0.166 HD
ATOM     17  H   UNL     1     -45.610  36.770  29.419  1.00  0.00     0.065 H 
BRANCH   5  18
ATOM     18  C   UNL     1     -42.092  42.220  28.541  1.00  0.00     0.043 C 
ATOM     19  H   UNL     1     -42.091  42.805  29.468  1.00  0.00     0.054 H 
ATOM     20  H   UNL     1     -41.050  41.942  28.342  1.00  0.00     0.054 H 
BRANCH  18  21
ATOM     21  N   UNL     1     -42.552  43.047  27.457  1.00  0.00    -0.347 N 
ATOM     22  O   UNL     1     -40.992  42.327  25.933  1.00  0.00    -0.268 OA
ATOM     23  C   UNL     1     -41.983  42.993  26.211  1.00  0.00     0.270 C 
ATOM     24  H   UNL     1     -43.422  43.564  27.544  1.00  0.00     0.164 HD
BRANCH  23  25
ATOM     25  C   UNL     1     -42.722  43.839  25.203  1.00  0.00     0.136 A 
ATOM     26  C   UNL     1     -43.769  44.530  25.660  1.00  0.00     0.035 A 
ATOM     27  N   UNL     1     -42.282  43.851  23.898  1.00  0.00    -0.225 NA
ATOM     28  C   UNL     1     -44.516  45.366  24.713  1.00  0.00     0.258 A 
ATOM     29  H   UNL     1     -44.105  44.513  26.688  1.00  0.00     0.071 H 
ATOM     30  C   UNL     1     -42.946  44.593  23.065  1.00  0.00     0.140 A 
ATOM     31  O   UNL     1     -45.484  46.005  25.124  1.00  0.00    -0.269 OA
ATOM     32  N   UNL     1     -44.053  45.362  23.405  1.00  0.00    -0.268 N 
ATOM     33  C   UNL     1     -42.504  44.637  21.642  1.00  0.00    -0.019 A 
ATOM     34  C   UNL     1     -44.709  46.132  22.450  1.00  0.00     0.014 A 
ATOM     35  C   UNL     1     -43.168  45.393  20.759  1.00  0.00    -0.057 A 
ATOM     36  H   UNL     1     -41.641  44.041  21.368  1.00  0.00     0.066 H 
ATOM     37  C   UNL     1     -44.307  46.167  21.174  1.00  0.00    -0.045 A 
ATOM     38  H   UNL     1     -45.568  46.708  22.787  1.00  0.00     0.082 H 
ATOM     39  H   UNL     1     -42.862  45.438  19.719  1.00  0.00     0.062 H 
ATOM     40  H   UNL     1     -44.827  46.771  20.437  1.00  0.00     0.064 H 
ENDBRANCH  23  25
ENDBRANCH  18  21
ENDBRANCH   5  18
ENDBRANCH   1   4
BRANCH   1  41
ATOM     41  N   UNL     1     -47.572  35.867  27.709  1.00  0.00    -0.292 NA
ATOM     42  C   UNL     1     -46.801  34.627  27.477  1.00  0.00     0.026 C 
ATOM     43  C   UNL     1     -48.774  35.217  27.138  1.00  0.00     0.026 C 
ATOM     44  C   UNL     1     -47.885  34.129  26.494  1.00  0.00     0.083 C 
ATOM     45  H   UNL     1     -46.706  34.013  28.381  1.00  0.00     0.046 H 
ATOM     46  H   UNL     1     -45.801  34.736  27.044  1.00  0.00     0.046 H 
ATOM     47  H   UNL     1     -49.366  35.816  26.435  1.00  0.00     0.046 H 
ATOM     48  H   UNL     1     -49.456  34.833  27.906  1.00  0.00     0.046 H 
ATOM     49  H   UNL     1     -47.661  34.364  25.445  1.00  0.00     0.063 H 
BRANCH  44  50
ATOM     50  O   UNL     1     -48.353  32.765  26.624  1.00  0.00    -0.366 OA
BRANCH  50  51
ATOM     51  C   UNL     1     -48.945  32.160  25.464  1.00  0.00     0.143 C 
ATOM     52  H   UNL     1     -49.851  31.625  25.765  1.00  0.00     0.066 H 
ATOM     53  H   UNL     1     -49.259  32.982  24.812  1.00  0.00     0.066 H 
BRANCH  51  54
ATOM     54  C   UNL     1     -48.026  31.233  24.674  1.00  0.00     0.411 C 
ATOM     55  F   UNL     1     -48.156  29.948  25.081  1.00  0.00    -0.168 F 
ATOM     56  F   UNL     1     -46.727  31.578  24.800  1.00  0.00    -0.168 F 
ATOM     57  F   UNL     1     -48.334  31.266  23.357  1.00  0.00    -0.168 F 
ENDBRANCH  51  54
ENDBRANCH  50  51
ENDBRANCH  44  50
ENDBRANCH   1  41
TORSDOF 8
ENDMDL
MODEL 6
REMARK VINA RESULT:      -8.7      2.700      3.332
REMARK SMILES O=C(NCc1ccc2cc(CN3CC(OCC(F)(F)F)C3)[nH]c2c1)c1cc(=O)n2ccccc2n1
REMARK SMILES IDX 11 1 10 4 5 5 6 6 24 7 7 8 23 10 8 12 22 14 9 15 4 18 3 21
REMARK SMILES IDX 1 22 2 23 25 25 26 26 35 27 27 28 34 30 28 31 29 32 33 33
REMARK SMILES IDX 30 34 32 35 31 37 12 41 13 42 21 43 14 44 15 50 16 51 17 54
REMARK SMILES IDX 18 55 19 56 20 57
REMARK H PARENT 11 2 11 3 6 9 24 11 7 13 22 16 9 17 4 19 4 20 3 24 26 29 33 36
REMARK H PARENT 30 38 32 39 31 40 13 45 13 46 21 47 21 48 14 49 16 52 16 53
REMARK Flexibility Score: inf
ROOT
ATOM      1  C   UNL     1     -48.658  30.508  25.183  1.00  0.00     0.039 C 
ATOM      2  H   UNL     1     -47.908  30.060  24.518  1.00  0.00     0.050 H 
ATOM      3  H   UNL     1     -48.714  29.861  26.069  1.00  0.00     0.050 H 
ENDROOT
BRANCH   1   4
ATOM      4  C   UNL     1     -48.168  31.868  25.562  1.00  0.00     0.030 A 
ATOM      5  C   UNL     1     -47.777  36.199  27.130  1.00  0.00    -0.027 A 
ATOM      6  C   UNL     1     -46.459  36.014  26.693  1.00  0.00    -0.057 A 
ATOM      7  C   UNL     1     -48.720  35.167  26.977  1.00  0.00    -0.033 A 
ATOM      8  C   UNL     1     -46.050  34.804  26.118  1.00  0.00    -0.052 A 
ATOM      9  H   UNL     1     -45.732  36.817  26.797  1.00  0.00     0.063 H 
ATOM     10  C   UNL     1     -48.291  33.965  26.402  1.00  0.00     0.046 A 
ATOM     11  H   UNL     1     -49.750  35.302  27.295  1.00  0.00     0.065 H 
ATOM     12  C   UNL     1     -46.983  33.759  25.972  1.00  0.00    -0.000 A 
ATOM     13  H   UNL     1     -45.024  34.673  25.789  1.00  0.00     0.063 H 
ATOM     14  N   UNL     1     -48.989  32.806  26.144  1.00  0.00    -0.357 N 
ATOM     15  C   UNL     1     -46.916  32.441  25.449  1.00  0.00    -0.032 A 
ATOM     16  H   UNL     1     -49.968  32.675  26.355  1.00  0.00     0.166 HD
ATOM     17  H   UNL     1     -46.046  31.957  25.024  1.00  0.00     0.065 H 
BRANCH   5  18
ATOM     18  C   UNL     1     -48.204  37.520  27.716  1.00  0.00     0.043 C 
ATOM     19  H   UNL     1     -49.121  37.882  27.235  1.00  0.00     0.054 H 
ATOM     20  H   UNL     1     -48.427  37.420  28.785  1.00  0.00     0.054 H 
BRANCH  18  21
ATOM     21  N   UNL     1     -47.167  38.504  27.563  1.00  0.00    -0.347 N 
ATOM     22  O   UNL     1     -46.233  38.188  29.636  1.00  0.00    -0.268 OA
ATOM     23  C   UNL     1     -46.224  38.723  28.534  1.00  0.00     0.270 C 
ATOM     24  H   UNL     1     -47.006  38.938  26.659  1.00  0.00     0.164 HD
BRANCH  23  25
ATOM     25  C   UNL     1     -45.156  39.695  28.093  1.00  0.00     0.136 A 
ATOM     26  C   UNL     1     -44.093  39.813  28.891  1.00  0.00     0.035 A 
ATOM     27  N   UNL     1     -45.335  40.386  26.916  1.00  0.00    -0.225 NA
ATOM     28  C   UNL     1     -43.029  40.746  28.499  1.00  0.00     0.258 A 
ATOM     29  H   UNL     1     -43.963  39.263  29.814  1.00  0.00     0.071 H 
ATOM     30  C   UNL     1     -44.392  41.209  26.572  1.00  0.00     0.140 A 
ATOM     31  O   UNL     1     -42.047  40.863  29.229  1.00  0.00    -0.269 OA
ATOM     32  N   UNL     1     -43.234  41.429  27.309  1.00  0.00    -0.268 N 
ATOM     33  C   UNL     1     -44.543  41.979  25.305  1.00  0.00    -0.019 A 
ATOM     34  C   UNL     1     -42.268  42.331  26.871  1.00  0.00     0.014 A 
ATOM     35  C   UNL     1     -43.588  42.835  24.925  1.00  0.00    -0.057 A 
ATOM     36  H   UNL     1     -45.443  41.812  24.724  1.00  0.00     0.066 H 
ATOM     37  C   UNL     1     -42.411  43.019  25.731  1.00  0.00    -0.045 A 
ATOM     38  H   UNL     1     -41.388  42.454  27.497  1.00  0.00     0.082 H 
ATOM     39  H   UNL     1     -43.680  43.404  24.005  1.00  0.00     0.062 H 
ATOM     40  H   UNL     1     -41.652  43.719  25.399  1.00  0.00     0.064 H 
ENDBRANCH  23  25
ENDBRANCH  18  21
ENDBRANCH   5  18
ENDBRANCH   1   4
BRANCH   1  41
ATOM     41  N   UNL     1     -49.936  30.598  24.465  1.00  0.00    -0.292 NA
ATOM     42  C   UNL     1     -50.191  29.392  23.650  1.00  0.00     0.026 C 
ATOM     43  C   UNL     1     -49.780  31.394  23.226  1.00  0.00     0.026 C 
ATOM     44  C   UNL     1     -49.591  30.094  22.410  1.00  0.00     0.083 C 
ATOM     45  H   UNL     1     -51.260  29.164  23.556  1.00  0.00     0.046 H 
ATOM     46  H   UNL     1     -49.681  28.470  23.950  1.00  0.00     0.046 H 
ATOM     47  H   UNL     1     -48.935  32.092  23.196  1.00  0.00     0.046 H 
ATOM     48  H   UNL     1     -50.685  31.953  22.962  1.00  0.00     0.046 H 
ATOM     49  H   UNL     1     -48.528  29.869  22.256  1.00  0.00     0.063 H 
BRANCH  44  50
ATOM     50  O   UNL     1     -50.316  30.016  21.160  1.00  0.00    -0.366 OA
BRANCH  50  51
ATOM     51  C   UNL     1     -51.056  28.813  20.903  1.00  0.00     0.143 C 
ATOM     52  H   UNL     1     -51.517  28.472  21.836  1.00  0.00     0.066 H 
ATOM     53  H   UNL     1     -51.870  29.089  20.225  1.00  0.00     0.066 H 
BRANCH  51  54
ATOM     54  C   UNL     1     -50.255  27.680  20.269  1.00  0.00     0.411 C 
ATOM     55  F   UNL     1     -49.731  26.860  21.211  1.00  0.00    -0.168 F 
ATOM     56  F   UNL     1     -49.239  28.140  19.508  1.00  0.00    -0.168 F 
ATOM     57  F   UNL     1     -51.049  26.920  19.478  1.00  0.00    -0.168 F 
ENDBRANCH  51  54
ENDBRANCH  50  51
ENDBRANCH  44  50
ENDBRANCH   1  41
TORSDOF 8
ENDMDL
MODEL 7
REMARK VINA RESULT:      -8.6      5.601     12.972
REMARK SMILES O=C(NCc1ccc2cc(CN3CC(OCC(F)(F)F)C3)[nH]c2c1)c1cc(=O)n2ccccc2n1
REMARK SMILES IDX 11 1 10 4 5 5 6 6 24 7 7 8 23 10 8 12 22 14 9 15 4 18 3 21
REMARK SMILES IDX 1 22 2 23 25 25 26 26 35 27 27 28 34 30 28 31 29 32 33 33
REMARK SMILES IDX 30 34 32 35 31 37 12 41 13 42 21 43 14 44 15 50 16 51 17 54
REMARK SMILES IDX 18 55 19 56 20 57
REMARK H PARENT 11 2 11 3 6 9 24 11 7 13 22 16 9 17 4 19 4 20 3 24 26 29 33 36
REMARK H PARENT 30 38 32 39 31 40 13 45 13 46 21 47 21 48 14 49 16 52 16 53
REMARK Flexibility Score: inf
ROOT
ATOM      1  C   UNL     1     -45.870  37.833  29.010  1.00  0.00     0.039 C 
ATOM      2  H   UNL     1     -46.357  37.804  29.993  1.00  0.00     0.050 H 
ATOM      3  H   UNL     1     -44.802  37.645  29.186  1.00  0.00     0.050 H 
ENDROOT
BRANCH   1   4
ATOM      4  C   UNL     1     -46.462  36.740  28.182  1.00  0.00     0.030 A 
ATOM      5  C   UNL     1     -47.154  33.203  25.287  1.00  0.00    -0.027 A 
ATOM      6  C   UNL     1     -48.474  33.382  25.720  1.00  0.00    -0.057 A 
ATOM      7  C   UNL     1     -46.135  34.040  25.774  1.00  0.00    -0.033 A 
ATOM      8  C   UNL     1     -48.803  34.375  26.651  1.00  0.00    -0.052 A 
ATOM      9  H   UNL     1     -49.267  32.745  25.332  1.00  0.00     0.063 H 
ATOM     10  C   UNL     1     -46.483  35.026  26.706  1.00  0.00     0.046 A 
ATOM     11  H   UNL     1     -45.109  33.925  25.435  1.00  0.00     0.065 H 
ATOM     12  C   UNL     1     -47.788  35.211  27.155  1.00  0.00    -0.000 A 
ATOM     13  H   UNL     1     -49.830  34.500  26.980  1.00  0.00     0.063 H 
ATOM     14  N   UNL     1     -45.700  35.962  27.341  1.00  0.00    -0.357 N 
ATOM     15  C   UNL     1     -47.764  36.288  28.080  1.00  0.00    -0.032 A 
ATOM     16  H   UNL     1     -44.703  36.056  27.202  1.00  0.00     0.166 HD
ATOM     17  H   UNL     1     -48.609  36.699  28.616  1.00  0.00     0.065 H 
BRANCH   5  18
ATOM     18  C   UNL     1     -46.828  32.149  24.260  1.00  0.00     0.043 C 
ATOM     19  H   UNL     1     -47.248  32.414  23.283  1.00  0.00     0.054 H 
ATOM     20  H   UNL     1     -45.744  32.059  24.124  1.00  0.00     0.054 H 
BRANCH  18  21
ATOM     21  N   UNL     1     -47.339  30.867  24.666  1.00  0.00    -0.347 N 
ATOM     22  O   UNL     1     -48.819  30.641  22.926  1.00  0.00    -0.268 OA
ATOM     23  C   UNL     1     -48.272  30.189  23.924  1.00  0.00     0.270 C 
ATOM     24  H   UNL     1     -46.891  30.357  25.421  1.00  0.00     0.164 HD
BRANCH  23  25
ATOM     25  C   UNL     1     -48.547  28.808  24.468  1.00  0.00     0.136 A 
ATOM     26  C   UNL     1     -49.761  28.306  24.230  1.00  0.00     0.035 A 
ATOM     27  N   UNL     1     -47.550  28.158  25.160  1.00  0.00    -0.225 NA
ATOM     28  C   UNL     1     -50.070  26.964  24.740  1.00  0.00     0.258 A 
ATOM     29  H   UNL     1     -50.536  28.826  23.682  1.00  0.00     0.071 H 
ATOM     30  C   UNL     1     -47.828  26.972  25.609  1.00  0.00     0.140 A 
ATOM     31  O   UNL     1     -51.186  26.494  24.527  1.00  0.00    -0.269 OA
ATOM     32  N   UNL     1     -49.049  26.331  25.433  1.00  0.00    -0.268 N 
ATOM     33  C   UNL     1     -46.779  26.231  26.364  1.00  0.00    -0.019 A 
ATOM     34  C   UNL     1     -49.267  25.056  25.946  1.00  0.00     0.014 A 
ATOM     35  C   UNL     1     -47.035  25.006  26.838  1.00  0.00    -0.057 A 
ATOM     36  H   UNL     1     -45.823  26.723  26.505  1.00  0.00     0.066 H 
ATOM     37  C   UNL     1     -48.320  24.396  26.624  1.00  0.00    -0.045 A 
ATOM     38  H   UNL     1     -50.246  24.616  25.772  1.00  0.00     0.082 H 
ATOM     39  H   UNL     1     -46.284  24.451  27.391  1.00  0.00     0.062 H 
ATOM     40  H   UNL     1     -48.501  23.402  27.019  1.00  0.00     0.064 H 
ENDBRANCH  23  25
ENDBRANCH  18  21
ENDBRANCH   5  18
ENDBRANCH   1   4
BRANCH   1  41
ATOM     41  N   UNL     1     -46.121  39.144  28.396  1.00  0.00    -0.292 NA
ATOM     42  C   UNL     1     -45.903  39.114  26.934  1.00  0.00     0.026 C 
ATOM     43  C   UNL     1     -44.938  40.023  28.546  1.00  0.00     0.026 C 
ATOM     44  C   UNL     1     -44.458  39.625  27.131  1.00  0.00     0.083 C 
ATOM     45  H   UNL     1     -46.553  39.816  26.396  1.00  0.00     0.046 H 
ATOM     46  H   UNL     1     -45.985  38.141  26.438  1.00  0.00     0.046 H 
ATOM     47  H   UNL     1     -44.247  39.777  29.361  1.00  0.00     0.046 H 
ATOM     48  H   UNL     1     -45.204  41.082  28.640  1.00  0.00     0.046 H 
ATOM     49  H   UNL     1     -43.715  38.819  27.172  1.00  0.00     0.063 H 
BRANCH  44  50
ATOM     50  O   UNL     1     -43.993  40.707  26.289  1.00  0.00    -0.366 OA
BRANCH  50  51
ATOM     51  C   UNL     1     -42.728  41.299  26.619  1.00  0.00     0.143 C 
ATOM     52  H   UNL     1     -42.619  41.325  27.708  1.00  0.00     0.066 H 
ATOM     53  H   UNL     1     -41.959  40.620  26.236  1.00  0.00     0.066 H 
BRANCH  51  54
ATOM     54  C   UNL     1     -42.487  42.688  26.035  1.00  0.00     0.411 C 
ATOM     55  F   UNL     1     -41.177  42.882  25.750  1.00  0.00    -0.168 F 
ATOM     56  F   UNL     1     -42.878  43.668  26.877  1.00  0.00    -0.168 F 
ATOM     57  F   UNL     1     -43.173  42.843  24.879  1.00  0.00    -0.168 F 
ENDBRANCH  51  54
ENDBRANCH  50  51
ENDBRANCH  44  50
ENDBRANCH   1  41
TORSDOF 8
ENDMDL
