MODEL 1
REMARK VINA RESULT:     -11.5      0.000      0.000
REMARK SMILES O=C(NCc1ccc2cc(CN[C@H]3CCC[C@H]3O)[nH]c2c1)c1cc(=O)n2ccccc2n1
REMARK SMILES IDX 5 1 6 2 7 3 8 4 9 5 10 6 19 7 20 8 21 9 4 15 3 18 1 19 2 20
REMARK SMILES IDX 22 22 23 23 32 24 24 25 31 27 25 28 26 29 30 30 27 31 29 32
REMARK SMILES IDX 28 34 11 38 12 41 13 43 14 44 17 45 15 47 16 50 18 56
REMARK H PARENT 6 10 7 11 9 12 19 13 21 14 4 16 4 17 3 21 23 26 30 33 27 35
REMARK H PARENT 29 36 28 37 11 39 11 40 12 42 13 46 14 48 14 49 17 51 15 52
REMARK H PARENT 15 53 16 54 16 55 18 57
REMARK Flexibility Score: inf
ROOT
ATOM      1  C   UNL     1     -47.914  34.719  26.485  1.00  0.00    -0.027 A 
ATOM      2  C   UNL     1     -46.665  34.674  25.851  1.00  0.00    -0.057 A 
ATOM      3  C   UNL     1     -46.287  33.576  25.068  1.00  0.00    -0.052 A 
ATOM      4  C   UNL     1     -47.177  32.496  24.921  1.00  0.00    -0.000 A 
ATOM      5  C   UNL     1     -47.121  31.255  24.228  1.00  0.00    -0.032 A 
ATOM      6  C   UNL     1     -48.306  30.583  24.454  1.00  0.00     0.030 A 
ATOM      7  N   UNL     1     -49.077  31.388  25.261  1.00  0.00    -0.357 N 
ATOM      8  C   UNL     1     -48.413  32.553  25.563  1.00  0.00     0.046 A 
ATOM      9  C   UNL     1     -48.808  33.641  26.352  1.00  0.00    -0.033 A 
ATOM     10  H   UNL     1     -45.967  35.502  25.970  1.00  0.00     0.063 H 
ATOM     11  H   UNL     1     -45.315  33.559  24.586  1.00  0.00     0.063 H 
ATOM     12  H   UNL     1     -46.298  30.895  23.625  1.00  0.00     0.065 H 
ATOM     13  H   UNL     1     -49.990  31.123  25.603  1.00  0.00     0.166 HD
ATOM     14  H   UNL     1     -49.775  33.648  26.844  1.00  0.00     0.065 H 
ENDROOT
BRANCH   1  15
ATOM     15  C   UNL     1     -48.279  35.904  27.343  1.00  0.00     0.043 C 
ATOM     16  H   UNL     1     -48.451  35.587  28.378  1.00  0.00     0.054 H 
ATOM     17  H   UNL     1     -49.208  36.360  26.986  1.00  0.00     0.054 H 
BRANCH  15  18
ATOM     18  N   UNL     1     -47.209  36.869  27.362  1.00  0.00    -0.347 N 
ATOM     19  O   UNL     1     -46.690  36.670  29.595  1.00  0.00    -0.268 OA
ATOM     20  C   UNL     1     -46.552  37.227  28.513  1.00  0.00     0.270 C 
ATOM     21  H   UNL     1     -47.088  37.489  26.568  1.00  0.00     0.164 HD
BRANCH  20  22
ATOM     22  C   UNL     1     -45.636  38.409  28.303  1.00  0.00     0.136 A 
ATOM     23  C   UNL     1     -45.880  39.167  27.233  1.00  0.00     0.035 A 
ATOM     24  N   UNL     1     -44.618  38.627  29.205  1.00  0.00    -0.225 NA
ATOM     25  C   UNL     1     -45.010  40.323  26.986  1.00  0.00     0.258 A 
ATOM     26  H   UNL     1     -46.682  38.983  26.529  1.00  0.00     0.071 H 
ATOM     27  C   UNL     1     -43.848  39.647  28.979  1.00  0.00     0.140 A 
ATOM     28  O   UNL     1     -45.230  41.031  26.004  1.00  0.00    -0.269 OA
ATOM     29  N   UNL     1     -43.989  40.518  27.905  1.00  0.00    -0.268 N 
ATOM     30  C   UNL     1     -42.728  39.920  29.927  1.00  0.00    -0.019 A 
ATOM     31  C   UNL     1     -43.120  41.592  27.735  1.00  0.00     0.014 A 
ATOM     32  C   UNL     1     -41.919  40.965  29.721  1.00  0.00    -0.057 A 
ATOM     33  H   UNL     1     -42.609  39.245  30.765  1.00  0.00     0.066 H 
ATOM     34  C   UNL     1     -42.118  41.831  28.590  1.00  0.00    -0.045 A 
ATOM     35  H   UNL     1     -43.291  42.233  26.874  1.00  0.00     0.082 H 
ATOM     36  H   UNL     1     -41.098  41.178  30.398  1.00  0.00     0.062 H 
ATOM     37  H   UNL     1     -41.446  42.670  28.448  1.00  0.00     0.064 H 
ENDBRANCH  20  22
ENDBRANCH  15  18
ENDBRANCH   1  15
BRANCH   6  38
ATOM     38  C   UNL     1     -48.796  29.264  23.972  1.00  0.00     0.036 C 
ATOM     39  H   UNL     1     -49.580  29.434  23.224  1.00  0.00     0.049 H 
ATOM     40  H   UNL     1     -47.971  28.730  23.485  1.00  0.00     0.049 H 
BRANCH  38  41
ATOM     41  N   UNL     1     -49.321  28.499  25.095  1.00  0.00    -0.306 NA
ATOM     42  H   UNL     1     -49.241  29.049  25.953  1.00  0.00     0.123 HD
BRANCH  41  43
ATOM     43  C   UNL     1     -48.655  27.213  25.291  1.00  0.00     0.033 C 
ATOM     44  C   UNL     1     -47.202  27.136  24.811  1.00  0.00    -0.035 C 
ATOM     45  C   UNL     1     -48.520  26.855  26.786  1.00  0.00     0.069 C 
ATOM     46  H   UNL     1     -49.237  26.425  24.794  1.00  0.00     0.049 H 
ATOM     47  C   UNL     1     -46.600  25.960  25.582  1.00  0.00    -0.049 C 
ATOM     48  H   UNL     1     -46.652  28.054  25.058  1.00  0.00     0.028 H 
ATOM     49  H   UNL     1     -47.126  26.988  23.729  1.00  0.00     0.028 H 
ATOM     50  C   UNL     1     -47.516  25.706  26.784  1.00  0.00    -0.025 C 
ATOM     51  H   UNL     1     -49.478  26.563  27.228  1.00  0.00     0.062 H 
ATOM     52  H   UNL     1     -46.554  25.065  24.950  1.00  0.00     0.027 H 
ATOM     53  H   UNL     1     -45.577  26.187  25.899  1.00  0.00     0.027 H 
ATOM     54  H   UNL     1     -46.941  25.646  27.713  1.00  0.00     0.029 H 
ATOM     55  H   UNL     1     -48.037  24.751  26.641  1.00  0.00     0.029 H 
BRANCH  45  56
ATOM     56  O   UNL     1     -48.007  27.952  27.549  1.00  0.00    -0.392 OA
ATOM     57  H   UNL     1     -47.046  27.841  27.643  1.00  0.00     0.211 HD
ENDBRANCH  45  56
ENDBRANCH  41  43
ENDBRANCH  38  41
ENDBRANCH   6  38
TORSDOF 7
ENDMDL
MODEL 2
REMARK VINA RESULT:     -11.3      1.494      2.055
REMARK SMILES O=C(NCc1ccc2cc(CN[C@H]3CCC[C@H]3O)[nH]c2c1)c1cc(=O)n2ccccc2n1
REMARK SMILES IDX 5 1 6 2 7 3 8 4 9 5 10 6 19 7 20 8 21 9 4 15 3 18 1 19 2 20
REMARK SMILES IDX 22 22 23 23 32 24 24 25 31 27 25 28 26 29 30 30 27 31 29 32
REMARK SMILES IDX 28 34 11 38 12 41 13 43 14 44 17 45 15 47 16 50 18 56
REMARK H PARENT 6 10 7 11 9 12 19 13 21 14 4 16 4 17 3 21 23 26 30 33 27 35
REMARK H PARENT 29 36 28 37 11 39 11 40 12 42 13 46 14 48 14 49 17 51 15 52
REMARK H PARENT 15 53 16 54 16 55 18 57
REMARK Flexibility Score: inf
ROOT
ATOM      1  C   UNL     1     -47.950  34.313  26.384  1.00  0.00    -0.027 A 
ATOM      2  C   UNL     1     -46.719  34.338  25.714  1.00  0.00    -0.057 A 
ATOM      3  C   UNL     1     -46.324  33.282  24.883  1.00  0.00    -0.052 A 
ATOM      4  C   UNL     1     -47.177  32.175  24.723  1.00  0.00    -0.000 A 
ATOM      5  C   UNL     1     -47.095  30.961  23.984  1.00  0.00    -0.032 A 
ATOM      6  C   UNL     1     -48.247  30.238  24.220  1.00  0.00     0.030 A 
ATOM      7  N   UNL     1     -49.023  30.984  25.076  1.00  0.00    -0.357 N 
ATOM      8  C   UNL     1     -48.394  32.163  25.400  1.00  0.00     0.046 A 
ATOM      9  C   UNL     1     -48.806  33.207  26.238  1.00  0.00    -0.033 A 
ATOM     10  H   UNL     1     -46.050  35.187  25.843  1.00  0.00     0.063 H 
ATOM     11  H   UNL     1     -45.366  33.320  24.374  1.00  0.00     0.063 H 
ATOM     12  H   UNL     1     -46.276  30.655  23.347  1.00  0.00     0.065 H 
ATOM     13  H   UNL     1     -49.916  30.673  25.434  1.00  0.00     0.166 HD
ATOM     14  H   UNL     1     -49.759  33.161  26.757  1.00  0.00     0.065 H 
ENDROOT
BRANCH   1  15
ATOM     15  C   UNL     1     -48.333  35.453  27.294  1.00  0.00     0.043 C 
ATOM     16  H   UNL     1     -48.574  35.078  28.295  1.00  0.00     0.054 H 
ATOM     17  H   UNL     1     -49.228  35.958  26.913  1.00  0.00     0.054 H 
BRANCH  15  18
ATOM     18  N   UNL     1     -47.242  36.383  27.435  1.00  0.00    -0.347 N 
ATOM     19  O   UNL     1     -46.944  36.126  29.702  1.00  0.00    -0.268 OA
ATOM     20  C   UNL     1     -46.687  36.698  28.650  1.00  0.00     0.270 C 
ATOM     21  H   UNL     1     -47.027  37.013  26.670  1.00  0.00     0.164 HD
BRANCH  20  22
ATOM     22  C   UNL     1     -45.719  37.854  28.554  1.00  0.00     0.136 A 
ATOM     23  C   UNL     1     -44.877  38.010  29.577  1.00  0.00     0.035 A 
ATOM     24  N   UNL     1     -45.766  38.667  27.444  1.00  0.00    -0.225 NA
ATOM     25  C   UNL     1     -43.923  39.125  29.529  1.00  0.00     0.258 A 
ATOM     26  H   UNL     1     -44.851  37.364  30.446  1.00  0.00     0.071 H 
ATOM     27  C   UNL     1     -44.926  39.656  27.409  1.00  0.00     0.140 A 
ATOM     28  O   UNL     1     -43.139  39.273  30.465  1.00  0.00    -0.269 OA
ATOM     29  N   UNL     1     -43.995  39.933  28.404  1.00  0.00    -0.268 N 
ATOM     30  C   UNL     1     -44.944  40.567  26.229  1.00  0.00    -0.019 A 
ATOM     31  C   UNL     1     -43.125  41.014  28.289  1.00  0.00     0.014 A 
ATOM     32  C   UNL     1     -44.088  41.593  26.164  1.00  0.00    -0.057 A 
ATOM     33  H   UNL     1     -45.668  40.361  25.451  1.00  0.00     0.066 H 
ATOM     34  C   UNL     1     -43.147  41.827  27.226  1.00  0.00    -0.045 A 
ATOM     35  H   UNL     1     -42.423  41.170  29.104  1.00  0.00     0.082 H 
ATOM     36  H   UNL     1     -44.088  42.268  25.314  1.00  0.00     0.062 H 
ATOM     37  H   UNL     1     -42.465  42.667  27.147  1.00  0.00     0.064 H 
ENDBRANCH  20  22
ENDBRANCH  15  18
ENDBRANCH   1  15
BRANCH   6  38
ATOM     38  C   UNL     1     -48.700  28.918  23.705  1.00  0.00     0.036 C 
ATOM     39  H   UNL     1     -49.626  28.640  24.224  1.00  0.00     0.049 H 
ATOM     40  H   UNL     1     -48.922  29.006  22.635  1.00  0.00     0.049 H 
BRANCH  38  41
ATOM     41  N   UNL     1     -47.664  27.920  23.942  1.00  0.00    -0.306 NA
ATOM     42  H   UNL     1     -47.681  27.223  23.195  1.00  0.00     0.123 HD
BRANCH  41  43
ATOM     43  C   UNL     1     -47.789  27.242  25.230  1.00  0.00     0.033 C 
ATOM     44  C   UNL     1     -48.911  26.202  25.329  1.00  0.00    -0.035 C 
ATOM     45  C   UNL     1     -46.539  26.399  25.562  1.00  0.00     0.069 C 
ATOM     46  H   UNL     1     -47.925  27.990  26.022  1.00  0.00     0.049 H 
ATOM     47  C   UNL     1     -48.505  25.301  26.496  1.00  0.00    -0.049 C 
ATOM     48  H   UNL     1     -48.981  25.603  24.412  1.00  0.00     0.028 H 
ATOM     49  H   UNL     1     -49.891  26.660  25.498  1.00  0.00     0.028 H 
ATOM     50  C   UNL     1     -47.004  25.520  26.719  1.00  0.00    -0.025 C 
ATOM     51  H   UNL     1     -45.682  27.022  25.836  1.00  0.00     0.062 H 
ATOM     52  H   UNL     1     -49.060  25.566  27.403  1.00  0.00     0.027 H 
ATOM     53  H   UNL     1     -48.727  24.253  26.272  1.00  0.00     0.027 H 
ATOM     54  H   UNL     1     -46.469  24.566  26.766  1.00  0.00     0.029 H 
ATOM     55  H   UNL     1     -46.857  26.044  27.671  1.00  0.00     0.029 H 
BRANCH  45  56
ATOM     56  O   UNL     1     -46.143  25.581  24.455  1.00  0.00    -0.392 OA
ATOM     57  H   UNL     1     -45.175  25.620  24.371  1.00  0.00     0.211 HD
ENDBRANCH  45  56
ENDBRANCH  41  43
ENDBRANCH  38  41
ENDBRANCH   6  38
TORSDOF 7
ENDMDL
MODEL 3
REMARK VINA RESULT:     -10.3      3.171      5.023
REMARK SMILES O=C(NCc1ccc2cc(CN[C@H]3CCC[C@H]3O)[nH]c2c1)c1cc(=O)n2ccccc2n1
REMARK SMILES IDX 5 1 6 2 7 3 8 4 9 5 10 6 19 7 20 8 21 9 4 15 3 18 1 19 2 20
REMARK SMILES IDX 22 22 23 23 32 24 24 25 31 27 25 28 26 29 30 30 27 31 29 32
REMARK SMILES IDX 28 34 11 38 12 41 13 43 14 44 17 45 15 47 16 50 18 56
REMARK H PARENT 6 10 7 11 9 12 19 13 21 14 4 16 4 17 3 21 23 26 30 33 27 35
REMARK H PARENT 29 36 28 37 11 39 11 40 12 42 13 46 14 48 14 49 17 51 15 52
REMARK H PARENT 15 53 16 54 16 55 18 57
REMARK Flexibility Score: inf
ROOT
ATOM      1  C   UNL     1     -45.692  37.609  28.309  1.00  0.00    -0.027 A 
ATOM      2  C   UNL     1     -46.976  37.948  27.861  1.00  0.00    -0.057 A 
ATOM      3  C   UNL     1     -47.791  37.010  27.217  1.00  0.00    -0.052 A 
ATOM      4  C   UNL     1     -47.310  35.704  27.012  1.00  0.00    -0.000 A 
ATOM      5  C   UNL     1     -47.848  34.534  26.407  1.00  0.00    -0.032 A 
ATOM      6  C   UNL     1     -46.901  33.533  26.491  1.00  0.00     0.030 A 
ATOM      7  N   UNL     1     -45.809  34.066  27.135  1.00  0.00    -0.357 N 
ATOM      8  C   UNL     1     -46.029  35.384  27.458  1.00  0.00     0.046 A 
ATOM      9  C   UNL     1     -45.197  36.309  28.101  1.00  0.00    -0.033 A 
ATOM     10  H   UNL     1     -47.350  38.961  28.007  1.00  0.00     0.063 H 
ATOM     11  H   UNL     1     -48.783  37.292  26.876  1.00  0.00     0.063 H 
ATOM     12  H   UNL     1     -48.828  34.439  25.959  1.00  0.00     0.065 H 
ATOM     13  H   UNL     1     -44.955  33.551  27.305  1.00  0.00     0.166 HD
ATOM     14  H   UNL     1     -44.201  36.027  28.428  1.00  0.00     0.065 H 
ENDROOT
BRANCH   1  15
ATOM     15  C   UNL     1     -44.828  38.651  28.973  1.00  0.00     0.043 C 
ATOM     16  H   UNL     1     -43.896  38.202  29.334  1.00  0.00     0.054 H 
ATOM     17  H   UNL     1     -45.343  39.072  29.844  1.00  0.00     0.054 H 
BRANCH  15  18
ATOM     18  N   UNL     1     -44.471  39.689  28.040  1.00  0.00    -0.347 N 
ATOM     19  O   UNL     1     -42.785  40.628  29.293  1.00  0.00    -0.268 OA
ATOM     20  C   UNL     1     -43.523  40.643  28.316  1.00  0.00     0.270 C 
ATOM     21  H   UNL     1     -45.090  39.888  27.261  1.00  0.00     0.164 HD
BRANCH  20  22
ATOM     22  C   UNL     1     -43.496  41.739  27.277  1.00  0.00     0.136 A 
ATOM     23  C   UNL     1     -42.303  42.034  26.757  1.00  0.00     0.035 A 
ATOM     24  N   UNL     1     -44.676  42.361  26.938  1.00  0.00    -0.225 NA
ATOM     25  C   UNL     1     -42.227  43.098  25.748  1.00  0.00     0.258 A 
ATOM     26  H   UNL     1     -41.380  41.538  27.034  1.00  0.00     0.071 H 
ATOM     27  C   UNL     1     -44.604  43.305  26.051  1.00  0.00     0.140 A 
ATOM     28  O   UNL     1     -41.132  43.374  25.260  1.00  0.00    -0.269 OA
ATOM     29  N   UNL     1     -43.428  43.714  25.430  1.00  0.00    -0.268 N 
ATOM     30  C   UNL     1     -45.856  44.013  25.657  1.00  0.00    -0.019 A 
ATOM     31  C   UNL     1     -43.437  44.735  24.484  1.00  0.00     0.014 A 
ATOM     32  C   UNL     1     -45.813  44.989  24.743  1.00  0.00    -0.057 A 
ATOM     33  H   UNL     1     -46.775  43.704  26.137  1.00  0.00     0.066 H 
ATOM     34  C   UNL     1     -44.565  45.364  24.135  1.00  0.00    -0.045 A 
ATOM     35  H   UNL     1     -42.481  45.001  24.038  1.00  0.00     0.082 H 
ATOM     36  H   UNL     1     -46.713  45.516  24.445  1.00  0.00     0.062 H 
ATOM     37  H   UNL     1     -44.559  46.160  23.397  1.00  0.00     0.064 H 
ENDBRANCH  20  22
ENDBRANCH  15  18
ENDBRANCH   1  15
BRANCH   6  38
ATOM     38  C   UNL     1     -46.927  32.115  26.041  1.00  0.00     0.036 C 
ATOM     39  H   UNL     1     -46.597  31.479  26.871  1.00  0.00     0.049 H 
ATOM     40  H   UNL     1     -47.956  31.838  25.786  1.00  0.00     0.049 H 
BRANCH  38  41
ATOM     41  N   UNL     1     -46.044  31.953  24.893  1.00  0.00    -0.306 NA
ATOM     42  H   UNL     1     -45.877  32.862  24.456  1.00  0.00     0.123 HD
BRANCH  41  43
ATOM     43  C   UNL     1     -46.557  31.027  23.886  1.00  0.00     0.033 C 
ATOM     44  C   UNL     1     -48.015  31.243  23.464  1.00  0.00    -0.035 C 
ATOM     45  C   UNL     1     -45.810  31.164  22.542  1.00  0.00     0.069 C 
ATOM     46  H   UNL     1     -46.439  29.997  24.247  1.00  0.00     0.049 H 
ATOM     47  C   UNL     1     -48.130  30.562  22.100  1.00  0.00    -0.049 C 
ATOM     48  H   UNL     1     -48.245  32.311  23.361  1.00  0.00     0.028 H 
ATOM     49  H   UNL     1     -48.724  30.822  24.184  1.00  0.00     0.028 H 
ATOM     50  C   UNL     1     -46.702  30.406  21.563  1.00  0.00    -0.025 C 
ATOM     51  H   UNL     1     -44.800  30.746  22.587  1.00  0.00     0.062 H 
ATOM     52  H   UNL     1     -48.603  29.578  22.195  1.00  0.00     0.027 H 
ATOM     53  H   UNL     1     -48.749  31.157  21.421  1.00  0.00     0.027 H 
ATOM     54  H   UNL     1     -46.622  30.783  20.539  1.00  0.00     0.029 H 
ATOM     55  H   UNL     1     -46.436  29.342  21.560  1.00  0.00     0.029 H 
BRANCH  45  56
ATOM     56  O   UNL     1     -45.694  32.533  22.138  1.00  0.00    -0.392 OA
ATOM     57  H   UNL     1     -44.751  32.746  22.033  1.00  0.00     0.211 HD
ENDBRANCH  45  56
ENDBRANCH  41  43
ENDBRANCH  38  41
ENDBRANCH   6  38
TORSDOF 7
ENDMDL
MODEL 4
REMARK VINA RESULT:     -10.2      2.521      3.246
REMARK SMILES O=C(NCc1ccc2cc(CN[C@H]3CCC[C@H]3O)[nH]c2c1)c1cc(=O)n2ccccc2n1
REMARK SMILES IDX 5 1 6 2 7 3 8 4 9 5 10 6 19 7 20 8 21 9 4 15 3 18 1 19 2 20
REMARK SMILES IDX 22 22 23 23 32 24 24 25 31 27 25 28 26 29 30 30 27 31 29 32
REMARK SMILES IDX 28 34 11 38 12 41 13 43 14 44 17 45 15 47 16 50 18 56
REMARK H PARENT 6 10 7 11 9 12 19 13 21 14 4 16 4 17 3 21 23 26 30 33 27 35
REMARK H PARENT 29 36 28 37 11 39 11 40 12 42 13 46 14 48 14 49 17 51 15 52
REMARK H PARENT 15 53 16 54 16 55 18 57
REMARK Flexibility Score: inf
ROOT
ATOM      1  C   UNL     1     -47.849  36.257  27.167  1.00  0.00    -0.027 A 
ATOM      2  C   UNL     1     -46.488  36.003  26.947  1.00  0.00    -0.057 A 
ATOM      3  C   UNL     1     -46.048  34.754  26.493  1.00  0.00    -0.052 A 
ATOM      4  C   UNL     1     -46.989  33.735  26.259  1.00  0.00    -0.000 A 
ATOM      5  C   UNL     1     -46.897  32.386  25.815  1.00  0.00    -0.032 A 
ATOM      6  C   UNL     1     -48.173  31.858  25.782  1.00  0.00     0.030 A 
ATOM      7  N   UNL     1     -49.030  32.853  26.188  1.00  0.00    -0.357 N 
ATOM      8  C   UNL     1     -48.337  34.001  26.488  1.00  0.00     0.046 A 
ATOM      9  C   UNL     1     -48.797  35.243  26.945  1.00  0.00    -0.033 A 
ATOM     10  H   UNL     1     -45.753  36.784  27.137  1.00  0.00     0.063 H 
ATOM     11  H   UNL     1     -44.989  34.576  26.329  1.00  0.00     0.063 H 
ATOM     12  H   UNL     1     -45.990  31.861  25.547  1.00  0.00     0.065 H 
ATOM     13  H   UNL     1     -50.029  32.725  26.282  1.00  0.00     0.166 HD
ATOM     14  H   UNL     1     -49.855  35.413  27.121  1.00  0.00     0.065 H 
ENDROOT
BRANCH   1  15
ATOM     15  C   UNL     1     -48.287  37.605  27.684  1.00  0.00     0.043 C 
ATOM     16  H   UNL     1     -48.737  37.504  28.678  1.00  0.00     0.054 H 
ATOM     17  H   UNL     1     -49.050  38.034  27.025  1.00  0.00     0.054 H 
BRANCH  15  18
ATOM     18  N   UNL     1     -47.161  38.494  27.810  1.00  0.00    -0.347 N 
ATOM     19  O   UNL     1     -47.774  39.962  26.147  1.00  0.00    -0.268 OA
ATOM     20  C   UNL     1     -46.962  39.563  26.972  1.00  0.00     0.270 C 
ATOM     21  H   UNL     1     -46.360  38.203  28.360  1.00  0.00     0.164 HD
BRANCH  20  22
ATOM     22  C   UNL     1     -45.605  40.198  27.169  1.00  0.00     0.136 A 
ATOM     23  C   UNL     1     -45.192  41.026  26.208  1.00  0.00     0.035 A 
ATOM     24  N   UNL     1     -44.886  39.888  28.301  1.00  0.00    -0.225 NA
ATOM     25  C   UNL     1     -43.876  41.661  26.354  1.00  0.00     0.258 A 
ATOM     26  H   UNL     1     -45.767  41.260  25.320  1.00  0.00     0.071 H 
ATOM     27  C   UNL     1     -43.721  40.446  28.423  1.00  0.00     0.140 A 
ATOM     28  O   UNL     1     -43.489  42.429  25.475  1.00  0.00    -0.269 OA
ATOM     29  N   UNL     1     -43.169  41.327  27.499  1.00  0.00    -0.268 N 
ATOM     30  C   UNL     1     -42.903  40.135  29.631  1.00  0.00    -0.019 A 
ATOM     31  C   UNL     1     -41.912  41.886  27.706  1.00  0.00     0.014 A 
ATOM     32  C   UNL     1     -41.699  40.698  29.785  1.00  0.00    -0.057 A 
ATOM     33  H   UNL     1     -43.323  39.449  30.354  1.00  0.00     0.066 H 
ATOM     34  C   UNL     1     -41.184  41.603  28.793  1.00  0.00    -0.045 A 
ATOM     35  H   UNL     1     -41.543  42.568  26.943  1.00  0.00     0.082 H 
ATOM     36  H   UNL     1     -41.088  40.482  30.656  1.00  0.00     0.062 H 
ATOM     37  H   UNL     1     -40.204  42.044  28.944  1.00  0.00     0.064 H 
ENDBRANCH  20  22
ENDBRANCH  15  18
ENDBRANCH   1  15
BRANCH   6  38
ATOM     38  C   UNL     1     -48.669  30.512  25.388  1.00  0.00     0.036 C 
ATOM     39  H   UNL     1     -48.610  29.849  26.260  1.00  0.00     0.049 H 
ATOM     40  H   UNL     1     -49.720  30.589  25.087  1.00  0.00     0.049 H 
BRANCH  38  41
ATOM     41  N   UNL     1     -47.852  29.992  24.298  1.00  0.00    -0.306 NA
ATOM     42  H   UNL     1     -46.996  30.546  24.216  1.00  0.00     0.123 HD
BRANCH  41  43
ATOM     43  C   UNL     1     -48.537  29.981  23.007  1.00  0.00     0.033 C 
ATOM     44  C   UNL     1     -49.622  31.047  22.819  1.00  0.00    -0.035 C 
ATOM     45  C   UNL     1     -47.575  30.291  21.841  1.00  0.00     0.069 C 
ATOM     46  H   UNL     1     -48.979  28.989  22.841  1.00  0.00     0.049 H 
ATOM     47  C   UNL     1     -49.782  31.176  21.304  1.00  0.00    -0.049 C 
ATOM     48  H   UNL     1     -49.308  32.012  23.238  1.00  0.00     0.028 H 
ATOM     49  H   UNL     1     -50.566  30.772  23.300  1.00  0.00     0.028 H 
ATOM     50  C   UNL     1     -48.517  30.581  20.675  1.00  0.00    -0.025 C 
ATOM     51  H   UNL     1     -46.902  29.455  21.628  1.00  0.00     0.062 H 
ATOM     52  H   UNL     1     -50.665  30.627  20.959  1.00  0.00     0.027 H 
ATOM     53  H   UNL     1     -49.916  32.224  21.017  1.00  0.00     0.027 H 
ATOM     54  H   UNL     1     -48.081  31.266  19.941  1.00  0.00     0.029 H 
ATOM     55  H   UNL     1     -48.778  29.648  20.162  1.00  0.00     0.029 H 
BRANCH  45  56
ATOM     56  O   UNL     1     -46.766  31.440  22.113  1.00  0.00    -0.392 OA
ATOM     57  H   UNL     1     -45.852  31.247  21.841  1.00  0.00     0.211 HD
ENDBRANCH  45  56
ENDBRANCH  41  43
ENDBRANCH  38  41
ENDBRANCH   6  38
TORSDOF 7
ENDMDL
MODEL 5
REMARK VINA RESULT:     -10.2      2.593      3.714
REMARK SMILES O=C(NCc1ccc2cc(CN[C@H]3CCC[C@H]3O)[nH]c2c1)c1cc(=O)n2ccccc2n1
REMARK SMILES IDX 5 1 6 2 7 3 8 4 9 5 10 6 19 7 20 8 21 9 4 15 3 18 1 19 2 20
REMARK SMILES IDX 22 22 23 23 32 24 24 25 31 27 25 28 26 29 30 30 27 31 29 32
REMARK SMILES IDX 28 34 11 38 12 41 13 43 14 44 17 45 15 47 16 50 18 56
REMARK H PARENT 6 10 7 11 9 12 19 13 21 14 4 16 4 17 3 21 23 26 30 33 27 35
REMARK H PARENT 29 36 28 37 11 39 11 40 12 42 13 46 14 48 14 49 17 51 15 52
REMARK H PARENT 15 53 16 54 16 55 18 57
REMARK Flexibility Score: inf
ROOT
ATOM      1  C   UNL     1     -46.581  35.073  27.826  1.00  0.00    -0.027 A 
ATOM      2  C   UNL     1     -47.875  35.522  27.527  1.00  0.00    -0.057 A 
ATOM      3  C   UNL     1     -48.740  34.762  26.730  1.00  0.00    -0.052 A 
ATOM      4  C   UNL     1     -48.300  33.528  26.217  1.00  0.00    -0.000 A 
ATOM      5  C   UNL     1     -48.893  32.531  25.393  1.00  0.00    -0.032 A 
ATOM      6  C   UNL     1     -47.967  31.523  25.207  1.00  0.00     0.030 A 
ATOM      7  N   UNL     1     -46.835  31.884  25.900  1.00  0.00    -0.357 N 
ATOM      8  C   UNL     1     -47.009  33.099  26.518  1.00  0.00     0.046 A 
ATOM      9  C   UNL     1     -46.128  33.846  27.311  1.00  0.00    -0.033 A 
ATOM     10  H   UNL     1     -48.217  36.481  27.911  1.00  0.00     0.063 H 
ATOM     11  H   UNL     1     -49.738  35.127  26.508  1.00  0.00     0.063 H 
ATOM     12  H   UNL     1     -49.893  32.552  24.983  1.00  0.00     0.065 H 
ATOM     13  H   UNL     1     -45.988  31.332  25.911  1.00  0.00     0.166 HD
ATOM     14  H   UNL     1     -45.125  33.484  27.519  1.00  0.00     0.065 H 
ENDROOT
BRANCH   1  15
ATOM     15  C   UNL     1     -45.664  35.929  28.663  1.00  0.00     0.043 C 
ATOM     16  H   UNL     1     -44.694  35.436  28.792  1.00  0.00     0.054 H 
ATOM     17  H   UNL     1     -46.089  36.075  29.663  1.00  0.00     0.054 H 
BRANCH  15  18
ATOM     18  N   UNL     1     -45.420  37.195  28.021  1.00  0.00    -0.347 N 
ATOM     19  O   UNL     1     -44.608  38.296  29.871  1.00  0.00    -0.268 OA
ATOM     20  C   UNL     1     -44.980  38.301  28.704  1.00  0.00     0.270 C 
ATOM     21  H   UNL     1     -45.807  37.365  27.099  1.00  0.00     0.164 HD
BRANCH  20  22
ATOM     22  C   UNL     1     -45.018  39.550  27.855  1.00  0.00     0.136 A 
ATOM     23  C   UNL     1     -46.204  39.885  27.344  1.00  0.00     0.035 A 
ATOM     24  N   UNL     1     -43.850  40.251  27.654  1.00  0.00    -0.225 NA
ATOM     25  C   UNL     1     -46.286  41.087  26.506  1.00  0.00     0.258 A 
ATOM     26  H   UNL     1     -47.116  39.323  27.507  1.00  0.00     0.071 H 
ATOM     27  C   UNL     1     -43.926  41.310  26.908  1.00  0.00     0.140 A 
ATOM     28  O   UNL     1     -47.377  41.407  26.035  1.00  0.00    -0.269 OA
ATOM     29  N   UNL     1     -45.096  41.772  26.314  1.00  0.00    -0.268 N 
ATOM     30  C   UNL     1     -42.685  42.098  26.658  1.00  0.00    -0.019 A 
ATOM     31  C   UNL     1     -45.093  42.921  25.528  1.00  0.00     0.014 A 
ATOM     32  C   UNL     1     -42.733  43.196  25.894  1.00  0.00    -0.057 A 
ATOM     33  H   UNL     1     -41.769  41.745  27.113  1.00  0.00     0.066 H 
ATOM     34  C   UNL     1     -43.976  43.623  25.309  1.00  0.00    -0.045 A 
ATOM     35  H   UNL     1     -46.044  43.225  25.097  1.00  0.00     0.082 H 
ATOM     36  H   UNL     1     -41.840  43.781  25.699  1.00  0.00     0.062 H 
ATOM     37  H   UNL     1     -43.985  44.517  24.693  1.00  0.00     0.064 H 
ENDBRANCH  20  22
ENDBRANCH  15  18
ENDBRANCH   1  15
BRANCH   6  38
ATOM     38  C   UNL     1     -48.048  30.242  24.455  1.00  0.00     0.036 C 
ATOM     39  H   UNL     1     -48.355  29.449  25.148  1.00  0.00     0.049 H 
ATOM     40  H   UNL     1     -48.813  30.330  23.675  1.00  0.00     0.049 H 
BRANCH  38  41
ATOM     41  N   UNL     1     -46.746  29.935  23.876  1.00  0.00    -0.306 NA
ATOM     42  H   UNL     1     -46.031  30.530  24.302  1.00  0.00     0.123 HD
BRANCH  41  43
ATOM     43  C   UNL     1     -46.698  30.098  22.425  1.00  0.00     0.033 C 
ATOM     44  C   UNL     1     -48.005  30.544  21.761  1.00  0.00    -0.035 C 
ATOM     45  C   UNL     1     -45.724  31.219  22.002  1.00  0.00     0.069 C 
ATOM     46  H   UNL     1     -46.367  29.157  21.965  1.00  0.00     0.049 H 
ATOM     47  C   UNL     1     -47.576  31.142  20.420  1.00  0.00    -0.049 C 
ATOM     48  H   UNL     1     -48.513  31.312  22.358  1.00  0.00     0.028 H 
ATOM     49  H   UNL     1     -48.708  29.716  21.624  1.00  0.00     0.028 H 
ATOM     50  C   UNL     1     -46.082  31.464  20.539  1.00  0.00    -0.025 C 
ATOM     51  H   UNL     1     -44.677  30.924  22.126  1.00  0.00     0.062 H 
ATOM     52  H   UNL     1     -47.741  30.427  19.606  1.00  0.00     0.027 H 
ATOM     53  H   UNL     1     -48.161  32.038  20.191  1.00  0.00     0.027 H 
ATOM     54  H   UNL     1     -45.872  32.490  20.220  1.00  0.00     0.029 H 
ATOM     55  H   UNL     1     -45.517  30.781  19.894  1.00  0.00     0.029 H 
BRANCH  45  56
ATOM     56  O   UNL     1     -45.929  32.414  22.763  1.00  0.00    -0.392 OA
ATOM     57  H   UNL     1     -45.070  32.852  22.890  1.00  0.00     0.211 HD
ENDBRANCH  45  56
ENDBRANCH  41  43
ENDBRANCH  38  41
ENDBRANCH   6  38
TORSDOF 7
ENDMDL
MODEL 6
REMARK VINA RESULT:      -9.9      2.747      3.801
REMARK SMILES O=C(NCc1ccc2cc(CN[C@H]3CCC[C@H]3O)[nH]c2c1)c1cc(=O)n2ccccc2n1
REMARK SMILES IDX 5 1 6 2 7 3 8 4 9 5 10 6 19 7 20 8 21 9 4 15 3 18 1 19 2 20
REMARK SMILES IDX 22 22 23 23 32 24 24 25 31 27 25 28 26 29 30 30 27 31 29 32
REMARK SMILES IDX 28 34 11 38 12 41 13 43 14 44 17 45 15 47 16 50 18 56
REMARK H PARENT 6 10 7 11 9 12 19 13 21 14 4 16 4 17 3 21 23 26 30 33 27 35
REMARK H PARENT 29 36 28 37 11 39 11 40 12 42 13 46 14 48 14 49 17 51 15 52
REMARK H PARENT 15 53 16 54 16 55 18 57
REMARK Flexibility Score: inf
ROOT
ATOM      1  C   UNL     1     -46.576  35.643  28.354  1.00  0.00    -0.027 A 
ATOM      2  C   UNL     1     -47.919  35.783  27.978  1.00  0.00    -0.057 A 
ATOM      3  C   UNL     1     -48.465  35.021  26.938  1.00  0.00    -0.052 A 
ATOM      4  C   UNL     1     -47.647  34.102  26.255  1.00  0.00    -0.000 A 
ATOM      5  C   UNL     1     -47.861  33.197  25.178  1.00  0.00    -0.032 A 
ATOM      6  C   UNL     1     -46.671  32.546  24.923  1.00  0.00     0.030 A 
ATOM      7  N   UNL     1     -45.747  33.030  25.819  1.00  0.00    -0.357 N 
ATOM      8  C   UNL     1     -46.313  33.979  26.636  1.00  0.00     0.046 A 
ATOM      9  C   UNL     1     -45.748  34.734  27.672  1.00  0.00    -0.033 A 
ATOM     10  H   UNL     1     -48.555  36.501  28.496  1.00  0.00     0.063 H 
ATOM     11  H   UNL     1     -49.507  35.144  26.661  1.00  0.00     0.063 H 
ATOM     12  H   UNL     1     -48.792  33.041  24.649  1.00  0.00     0.065 H 
ATOM     13  H   UNL     1     -44.779  32.739  25.834  1.00  0.00     0.166 HD
ATOM     14  H   UNL     1     -44.702  34.618  27.938  1.00  0.00     0.065 H 
ENDROOT
BRANCH   1  15
ATOM     15  C   UNL     1     -46.013  36.500  29.460  1.00  0.00     0.043 C 
ATOM     16  H   UNL     1     -45.361  35.905  30.109  1.00  0.00     0.054 H 
ATOM     17  H   UNL     1     -46.822  36.893  30.085  1.00  0.00     0.054 H 
BRANCH  15  18
ATOM     18  N   UNL     1     -45.217  37.572  28.919  1.00  0.00    -0.347 N 
ATOM     19  O   UNL     1     -44.336  38.303  30.916  1.00  0.00    -0.268 OA
ATOM     20  C   UNL     1     -44.500  38.437  29.709  1.00  0.00     0.270 C 
ATOM     21  H   UNL     1     -45.370  37.867  27.961  1.00  0.00     0.164 HD
BRANCH  20  22
ATOM     22  C   UNL     1     -43.938  39.597  28.923  1.00  0.00     0.136 A 
ATOM     23  C   UNL     1     -42.905  40.240  29.469  1.00  0.00     0.035 A 
ATOM     24  N   UNL     1     -44.517  39.923  27.717  1.00  0.00    -0.225 NA
ATOM     25  C   UNL     1     -42.330  41.379  28.743  1.00  0.00     0.258 A 
ATOM     26  H   UNL     1     -42.459  39.975  30.420  1.00  0.00     0.071 H 
ATOM     27  C   UNL     1     -44.011  40.935  27.082  1.00  0.00     0.140 A 
ATOM     28  O   UNL     1     -41.373  41.974  29.237  1.00  0.00    -0.269 OA
ATOM     29  N   UNL     1     -42.935  41.691  27.535  1.00  0.00    -0.268 N 
ATOM     30  C   UNL     1     -44.609  41.329  25.773  1.00  0.00    -0.019 A 
ATOM     31  C   UNL     1     -42.449  42.762  26.790  1.00  0.00     0.014 A 
ATOM     32  C   UNL     1     -44.107  42.367  25.094  1.00  0.00    -0.057 A 
ATOM     33  H   UNL     1     -45.449  40.748  25.414  1.00  0.00     0.066 H 
ATOM     34  C   UNL     1     -42.991  43.109  25.616  1.00  0.00    -0.045 A 
ATOM     35  H   UNL     1     -41.605  43.307  27.204  1.00  0.00     0.082 H 
ATOM     36  H   UNL     1     -44.530  42.669  24.142  1.00  0.00     0.062 H 
ATOM     37  H   UNL     1     -42.604  43.946  25.044  1.00  0.00     0.064 H 
ENDBRANCH  20  22
ENDBRANCH  15  18
ENDBRANCH   1  15
BRANCH   6  38
ATOM     38  C   UNL     1     -46.318  31.497  23.928  1.00  0.00     0.036 C 
ATOM     39  H   UNL     1     -45.331  31.729  23.510  1.00  0.00     0.049 H 
ATOM     40  H   UNL     1     -46.255  30.527  24.434  1.00  0.00     0.049 H 
BRANCH  38  41
ATOM     41  N   UNL     1     -47.323  31.470  22.873  1.00  0.00    -0.306 NA
ATOM     42  H   UNL     1     -48.124  32.045  23.145  1.00  0.00     0.123 HD
BRANCH  41  43
ATOM     43  C   UNL     1     -47.794  30.125  22.547  1.00  0.00     0.033 C 
ATOM     44  C   UNL     1     -48.885  29.561  23.463  1.00  0.00    -0.035 C 
ATOM     45  C   UNL     1     -48.475  30.072  21.163  1.00  0.00     0.069 C 
ATOM     46  H   UNL     1     -46.940  29.434  22.542  1.00  0.00     0.049 H 
ATOM     47  C   UNL     1     -49.553  28.459  22.638  1.00  0.00    -0.049 C 
ATOM     48  H   UNL     1     -49.628  30.329  23.717  1.00  0.00     0.028 H 
ATOM     49  H   UNL     1     -48.481  29.171  24.402  1.00  0.00     0.028 H 
ATOM     50  C   UNL     1     -49.189  28.723  21.173  1.00  0.00    -0.025 C 
ATOM     51  H   UNL     1     -47.753  30.149  20.344  1.00  0.00     0.062 H 
ATOM     52  H   UNL     1     -49.188  27.472  22.943  1.00  0.00     0.027 H 
ATOM     53  H   UNL     1     -50.637  28.467  22.788  1.00  0.00     0.027 H 
ATOM     54  H   UNL     1     -50.079  28.712  20.536  1.00  0.00     0.029 H 
ATOM     55  H   UNL     1     -48.509  27.936  20.827  1.00  0.00     0.029 H 
BRANCH  45  56
ATOM     56  O   UNL     1     -49.428  31.128  21.001  1.00  0.00    -0.392 OA
ATOM     57  H   UNL     1     -49.698  31.161  20.067  1.00  0.00     0.211 HD
ENDBRANCH  45  56
ENDBRANCH  41  43
ENDBRANCH  38  41
ENDBRANCH   6  38
TORSDOF 7
ENDMDL
MODEL 7
REMARK VINA RESULT:      -9.9      2.075     11.339
REMARK SMILES O=C(NCc1ccc2cc(CN[C@H]3CCC[C@H]3O)[nH]c2c1)c1cc(=O)n2ccccc2n1
REMARK SMILES IDX 5 1 6 2 7 3 8 4 9 5 10 6 19 7 20 8 21 9 4 15 3 18 1 19 2 20
REMARK SMILES IDX 22 22 23 23 32 24 24 25 31 27 25 28 26 29 30 30 27 31 29 32
REMARK SMILES IDX 28 34 11 38 12 41 13 43 14 44 17 45 15 47 16 50 18 56
REMARK H PARENT 6 10 7 11 9 12 19 13 21 14 4 16 4 17 3 21 23 26 30 33 27 35
REMARK H PARENT 29 36 28 37 11 39 11 40 12 42 13 46 14 48 14 49 17 51 15 52
REMARK H PARENT 15 53 16 54 16 55 18 57
REMARK Flexibility Score: inf
ROOT
ATOM      1  C   UNL     1     -46.839  33.357  25.271  1.00  0.00    -0.027 A 
ATOM      2  C   UNL     1     -48.194  33.403  25.623  1.00  0.00    -0.057 A 
ATOM      3  C   UNL     1     -48.650  34.241  26.648  1.00  0.00    -0.052 A 
ATOM      4  C   UNL     1     -47.728  35.048  27.339  1.00  0.00    -0.000 A 
ATOM      5  C   UNL     1     -47.837  35.984  28.406  1.00  0.00    -0.032 A 
ATOM      6  C   UNL     1     -46.574  36.472  28.678  1.00  0.00     0.030 A 
ATOM      7  N   UNL     1     -45.709  35.860  27.801  1.00  0.00    -0.357 N 
ATOM      8  C   UNL     1     -46.383  34.987  26.981  1.00  0.00     0.046 A 
ATOM      9  C   UNL     1     -45.907  34.153  25.961  1.00  0.00    -0.033 A 
ATOM     10  H   UNL     1     -48.911  32.772  25.100  1.00  0.00     0.063 H 
ATOM     11  H   UNL     1     -49.704  34.261  26.907  1.00  0.00     0.063 H 
ATOM     12  H   UNL     1     -48.746  36.269  28.917  1.00  0.00     0.065 H 
ATOM     13  H   UNL     1     -44.710  36.018  27.802  1.00  0.00     0.166 HD
ATOM     14  H   UNL     1     -44.850  34.125  25.714  1.00  0.00     0.065 H 
ENDROOT
BRANCH   1  15
ATOM     15  C   UNL     1     -46.376  32.422  24.182  1.00  0.00     0.043 C 
ATOM     16  H   UNL     1     -45.283  32.368  24.163  1.00  0.00     0.054 H 
ATOM     17  H   UNL     1     -46.699  32.792  23.202  1.00  0.00     0.054 H 
BRANCH  15  18
ATOM     18  N   UNL     1     -46.868  31.088  24.411  1.00  0.00    -0.347 N 
ATOM     19  O   UNL     1     -48.361  31.033  22.661  1.00  0.00    -0.268 OA
ATOM     20  C   UNL     1     -47.882  30.532  23.670  1.00  0.00     0.270 C 
ATOM     21  H   UNL     1     -46.650  30.624  25.286  1.00  0.00     0.164 HD
BRANCH  20  22
ATOM     22  C   UNL     1     -48.360  29.222  24.250  1.00  0.00     0.136 A 
ATOM     23  C   UNL     1     -49.680  29.028  24.269  1.00  0.00     0.035 A 
ATOM     24  N   UNL     1     -47.428  28.325  24.721  1.00  0.00    -0.225 NA
ATOM     25  C   UNL     1     -50.191  27.771  24.830  1.00  0.00     0.258 A 
ATOM     26  H   UNL     1     -50.404  29.743  23.897  1.00  0.00     0.071 H 
ATOM     27  C   UNL     1     -47.884  27.218  25.221  1.00  0.00     0.140 A 
ATOM     28  O   UNL     1     -51.407  27.582  24.847  1.00  0.00    -0.269 OA
ATOM     29  N   UNL     1     -49.233  26.888  25.303  1.00  0.00    -0.268 N 
ATOM     30  C   UNL     1     -46.911  26.219  25.749  1.00  0.00    -0.019 A 
ATOM     31  C   UNL     1     -49.640  25.676  25.853  1.00  0.00     0.014 A 
ATOM     32  C   UNL     1     -47.352  25.068  26.269  1.00  0.00    -0.057 A 
ATOM     33  H   UNL     1     -45.860  26.468  25.693  1.00  0.00     0.066 H 
ATOM     34  C   UNL     1     -48.761  24.784  26.324  1.00  0.00    -0.045 A 
ATOM     35  H   UNL     1     -50.710  25.484  25.883  1.00  0.00     0.082 H 
ATOM     36  H   UNL     1     -46.660  24.329  26.660  1.00  0.00     0.062 H 
ATOM     37  H   UNL     1     -49.090  23.842  26.752  1.00  0.00     0.064 H 
ENDBRANCH  20  22
ENDBRANCH  15  18
ENDBRANCH   1  15
BRANCH   6  38
ATOM     38  C   UNL     1     -46.101  37.473  29.671  1.00  0.00     0.036 C 
ATOM     39  H   UNL     1     -46.436  37.161  30.668  1.00  0.00     0.049 H 
ATOM     40  H   UNL     1     -45.005  37.491  29.671  1.00  0.00     0.049 H 
BRANCH  38  41
ATOM     41  N   UNL     1     -46.644  38.784  29.338  1.00  0.00    -0.306 NA
ATOM     42  H   UNL     1     -47.658  38.781  29.475  1.00  0.00     0.123 HD
BRANCH  41  43
ATOM     43  C   UNL     1     -46.350  39.209  27.972  1.00  0.00     0.033 C 
ATOM     44  C   UNL     1     -47.004  40.521  27.526  1.00  0.00    -0.035 C 
ATOM     45  C   UNL     1     -44.849  39.514  27.773  1.00  0.00     0.069 C 
ATOM     46  H   UNL     1     -46.638  38.412  27.274  1.00  0.00     0.049 H 
ATOM     47  C   UNL     1     -46.154  40.999  26.348  1.00  0.00    -0.049 C 
ATOM     48  H   UNL     1     -46.975  41.272  28.327  1.00  0.00     0.028 H 
ATOM     49  H   UNL     1     -48.052  40.389  27.238  1.00  0.00     0.028 H 
ATOM     50  C   UNL     1     -44.814  40.261  26.443  1.00  0.00    -0.025 C 
ATOM     51  H   UNL     1     -44.243  38.603  27.750  1.00  0.00     0.062 H 
ATOM     52  H   UNL     1     -46.644  40.766  25.396  1.00  0.00     0.027 H 
ATOM     53  H   UNL     1     -46.016  42.085  26.386  1.00  0.00     0.027 H 
ATOM     54  H   UNL     1     -43.973  40.957  26.371  1.00  0.00     0.029 H 
ATOM     55  H   UNL     1     -44.741  39.547  25.613  1.00  0.00     0.029 H 
BRANCH  45  56
ATOM     56  O   UNL     1     -44.336  40.349  28.816  1.00  0.00    -0.392 OA
ATOM     57  H   UNL     1     -43.366  40.287  28.815  1.00  0.00     0.211 HD
ENDBRANCH  45  56
ENDBRANCH  41  43
ENDBRANCH  38  41
ENDBRANCH   6  38
TORSDOF 7
ENDMDL
