MODEL 1
REMARK VINA RESULT:     -10.0      0.000      0.000
REMARK SMILES CNc1ccc2ccc(OC[C@H]3O[C@@H](n4cc(Cl)c5c(N)ncnc54)[C@H](O)[C@@H]3O)cc2n1
REMARK SMILES IDX 11 1 10 4 9 5 3 6 4 7 32 8 5 9 31 11 6 12 30 14 7 15 8 17
REMARK SMILES IDX 2 20 1 22 12 26 13 27 28 28 14 30 26 31 29 35 15 37 16 38
REMARK SMILES IDX 25 39 17 40 19 42 24 43 18 44 20 45 23 46 22 47 21 49 27 52
REMARK H PARENT 11 2 11 3 4 10 5 13 30 16 7 18 8 19 2 21 1 23 1 24 1 25 12 29
REMARK H PARENT 28 32 14 33 26 34 29 36 16 41 23 48 21 50 21 51 27 53
REMARK Flexibility Score: inf
ROOT
ATOM      1  C   UNL     1     -45.889  35.920  27.745  1.00  0.00     0.117 C 
ATOM      2  H   UNL     1     -44.795  35.914  27.653  1.00  0.00     0.073 H 
ATOM      3  H   UNL     1     -46.190  35.066  28.363  1.00  0.00     0.073 H 
ENDROOT
BRANCH   1   4
ATOM      4  O   UNL     1     -46.506  35.853  26.458  1.00  0.00    -0.491 OA
BRANCH   4   5
ATOM      5  C   UNL     1     -47.202  34.714  26.161  1.00  0.00     0.121 A 
ATOM      6  C   UNL     1     -46.880  30.551  23.862  1.00  0.00     0.126 A 
ATOM      7  C   UNL     1     -48.175  30.200  24.223  1.00  0.00    -0.019 A 
ATOM      8  N   UNL     1     -46.338  31.729  24.234  1.00  0.00    -0.231 NA
ATOM      9  C   UNL     1     -48.928  31.073  25.003  1.00  0.00    -0.049 A 
ATOM     10  H   UNL     1     -48.604  29.261  23.889  1.00  0.00     0.066 H 
ATOM     11  C   UNL     1     -47.060  32.579  24.987  1.00  0.00     0.076 A 
ATOM     12  C   UNL     1     -48.373  32.290  25.403  1.00  0.00     0.001 A 
ATOM     13  H   UNL     1     -49.941  30.799  25.284  1.00  0.00     0.063 H 
ATOM     14  C   UNL     1     -46.503  33.789  25.376  1.00  0.00     0.007 A 
ATOM     15  C   UNL     1     -49.086  33.210  26.188  1.00  0.00    -0.049 A 
ATOM     16  H   UNL     1     -45.491  34.018  25.053  1.00  0.00     0.069 H 
ATOM     17  C   UNL     1     -48.501  34.419  26.566  1.00  0.00    -0.019 A 
ATOM     18  H   UNL     1     -50.102  32.990  26.508  1.00  0.00     0.063 H 
ATOM     19  H   UNL     1     -49.086  35.102  27.172  1.00  0.00     0.066 H 
BRANCH   6  20
ATOM     20  N   UNL     1     -46.158  29.657  23.050  1.00  0.00    -0.373 N 
ATOM     21  H   UNL     1     -46.395  29.831  22.078  1.00  0.00     0.161 HD
BRANCH  20  22
ATOM     22  C   UNL     1     -46.326  28.258  23.407  1.00  0.00     0.005 C 
ATOM     23  H   UNL     1     -45.340  27.804  23.540  1.00  0.00     0.045 H 
ATOM     24  H   UNL     1     -46.844  27.700  22.618  1.00  0.00     0.045 H 
ATOM     25  H   UNL     1     -46.867  28.146  24.353  1.00  0.00     0.045 H 
ENDBRANCH  20  22
ENDBRANCH   6  20
ENDBRANCH   4   5
ENDBRANCH   1   4
BRANCH   1  26
ATOM     26  C   UNL     1     -46.332  37.211  28.434  1.00  0.00     0.123 C 
ATOM     27  O   UNL     1     -45.213  38.092  28.610  1.00  0.00    -0.345 OA
ATOM     28  C   UNL     1     -47.373  37.977  27.624  1.00  0.00     0.114 C 
ATOM     29  H   UNL     1     -46.740  36.963  29.423  1.00  0.00     0.067 H 
ATOM     30  C   UNL     1     -45.723  39.444  28.561  1.00  0.00     0.164 C 
ATOM     31  C   UNL     1     -47.196  39.398  28.133  1.00  0.00     0.128 C 
ATOM     32  H   UNL     1     -47.166  37.920  26.551  1.00  0.00     0.066 H 
ATOM     33  H   UNL     1     -45.637  39.848  29.577  1.00  0.00     0.088 H 
ATOM     34  H   UNL     1     -47.476  40.155  27.395  1.00  0.00     0.068 H 
BRANCH  28  35
ATOM     35  O   UNL     1     -48.709  37.521  27.848  1.00  0.00    -0.387 OA
ATOM     36  H   UNL     1     -48.666  36.544  27.853  1.00  0.00     0.211 HD
ENDBRANCH  28  35
BRANCH  30  37
ATOM     37  N   UNL     1     -44.844  40.239  27.715  1.00  0.00    -0.302 N 
ATOM     38  C   UNL     1     -45.170  40.664  26.446  1.00  0.00     0.028 A 
ATOM     39  C   UNL     1     -43.590  40.698  28.037  1.00  0.00     0.149 A 
ATOM     40  C   UNL     1     -44.116  41.405  25.964  1.00  0.00     0.072 A 
ATOM     41  H   UNL     1     -46.122  40.412  25.996  1.00  0.00     0.084 H 
ATOM     42  C   UNL     1     -43.107  41.438  26.961  1.00  0.00     0.080 A 
ATOM     43  N   UNL     1     -42.942  40.465  29.191  1.00  0.00    -0.218 NA
ATOM     44  Cl  UNL     1     -44.037  42.142  24.434  1.00  0.00    -0.082 Cl
ATOM     45  C   UNL     1     -41.829  41.999  27.107  1.00  0.00     0.137 A 
ATOM     46  C   UNL     1     -41.731  41.045  29.212  1.00  0.00     0.120 A 
ATOM     47  N   UNL     1     -41.147  41.779  28.250  1.00  0.00    -0.219 NA
ATOM     48  H   UNL     1     -41.148  40.902  30.117  1.00  0.00     0.106 H 
BRANCH  45  49
ATOM     49  N   UNL     1     -41.202  42.766  26.140  1.00  0.00    -0.383 N 
ATOM     50  H   UNL     1     -41.844  43.067  25.418  1.00  0.00     0.158 HD
ATOM     51  H   UNL     1     -40.530  43.442  26.478  1.00  0.00     0.158 HD
ENDBRANCH  45  49
ENDBRANCH  30  37
BRANCH  31  52
ATOM     52  O   UNL     1     -48.052  39.601  29.275  1.00  0.00    -0.386 OA
ATOM     53  H   UNL     1     -48.601  38.788  29.319  1.00  0.00     0.211 HD
ENDBRANCH  31  52
ENDBRANCH   1  26
TORSDOF 9
ENDMDL
MODEL 2
REMARK VINA RESULT:      -9.3      2.970      9.840
REMARK SMILES CNc1ccc2ccc(OC[C@H]3O[C@@H](n4cc(Cl)c5c(N)ncnc54)[C@H](O)[C@@H]3O)cc2n1
REMARK SMILES IDX 11 1 10 4 9 5 3 6 4 7 32 8 5 9 31 11 6 12 30 14 7 15 8 17
REMARK SMILES IDX 2 20 1 22 12 26 13 27 28 28 14 30 26 31 29 35 15 37 16 38
REMARK SMILES IDX 25 39 17 40 19 42 24 43 18 44 20 45 23 46 22 47 21 49 27 52
REMARK H PARENT 11 2 11 3 4 10 5 13 30 16 7 18 8 19 2 21 1 23 1 24 1 25 12 29
REMARK H PARENT 28 32 14 33 26 34 29 36 16 41 23 48 21 50 21 51 27 53
REMARK Flexibility Score: inf
ROOT
ATOM      1  C   UNL     1     -48.147  35.884  26.689  1.00  0.00     0.117 C 
ATOM      2  H   UNL     1     -47.338  36.320  26.088  1.00  0.00     0.073 H 
ATOM      3  H   UNL     1     -49.064  35.884  26.088  1.00  0.00     0.073 H 
ENDROOT
BRANCH   1   4
ATOM      4  O   UNL     1     -48.336  36.626  27.896  1.00  0.00    -0.491 OA
BRANCH   4   5
ATOM      5  C   UNL     1     -47.212  37.081  28.528  1.00  0.00     0.121 A 
ATOM      6  C   UNL     1     -43.788  40.387  28.282  1.00  0.00     0.126 A 
ATOM      7  C   UNL     1     -43.180  39.908  29.436  1.00  0.00    -0.019 A 
ATOM      8  N   UNL     1     -44.901  39.814  27.780  1.00  0.00    -0.231 NA
ATOM      9  C   UNL     1     -43.740  38.824  30.103  1.00  0.00    -0.049 A 
ATOM     10  H   UNL     1     -42.269  40.365  29.807  1.00  0.00     0.066 H 
ATOM     11  C   UNL     1     -45.447  38.763  28.419  1.00  0.00     0.076 A 
ATOM     12  C   UNL     1     -44.897  38.228  29.599  1.00  0.00     0.001 A 
ATOM     13  H   UNL     1     -43.263  38.448  31.005  1.00  0.00     0.063 H 
ATOM     14  C   UNL     1     -46.595  38.174  27.908  1.00  0.00     0.007 A 
ATOM     15  C   UNL     1     -45.505  37.131  30.229  1.00  0.00    -0.049 A 
ATOM     16  H   UNL     1     -47.020  38.581  26.994  1.00  0.00     0.069 H 
ATOM     17  C   UNL     1     -46.660  36.559  29.694  1.00  0.00    -0.019 A 
ATOM     18  H   UNL     1     -45.080  36.714  31.140  1.00  0.00     0.063 H 
ATOM     19  H   UNL     1     -47.097  35.712  30.212  1.00  0.00     0.066 H 
BRANCH   6  20
ATOM     20  N   UNL     1     -43.179  41.468  27.618  1.00  0.00    -0.373 N 
ATOM     21  H   UNL     1     -42.666  41.114  26.815  1.00  0.00     0.161 HD
BRANCH  20  22
ATOM     22  C   UNL     1     -42.345  42.299  28.470  1.00  0.00     0.005 C 
ATOM     23  H   UNL     1     -42.971  42.757  29.241  1.00  0.00     0.045 H 
ATOM     24  H   UNL     1     -41.871  43.109  27.904  1.00  0.00     0.045 H 
ATOM     25  H   UNL     1     -41.578  41.708  28.982  1.00  0.00     0.045 H 
ENDBRANCH  20  22
ENDBRANCH   6  20
ENDBRANCH   4   5
ENDBRANCH   1   4
BRANCH   1  26
ATOM     26  C   UNL     1     -47.790  34.443  27.050  1.00  0.00     0.123 C 
ATOM     27  O   UNL     1     -48.776  33.539  26.529  1.00  0.00    -0.345 OA
ATOM     28  C   UNL     1     -46.446  34.011  26.472  1.00  0.00     0.114 C 
ATOM     29  H   UNL     1     -47.772  34.346  28.144  1.00  0.00     0.067 H 
ATOM     30  C   UNL     1     -48.103  32.290  26.246  1.00  0.00     0.164 C 
ATOM     31  C   UNL     1     -46.591  32.499  26.413  1.00  0.00     0.128 C 
ATOM     32  H   UNL     1     -46.290  34.426  25.472  1.00  0.00     0.066 H 
ATOM     33  H   UNL     1     -48.466  31.564  26.983  1.00  0.00     0.088 H 
ATOM     34  H   UNL     1     -45.983  32.042  25.627  1.00  0.00     0.068 H 
BRANCH  28  35
ATOM     35  O   UNL     1     -45.335  34.382  27.290  1.00  0.00    -0.387 OA
ATOM     36  H   UNL     1     -45.600  34.192  28.213  1.00  0.00     0.211 HD
ENDBRANCH  28  35
BRANCH  30  37
ATOM     37  N   UNL     1     -48.535  31.819  24.938  1.00  0.00    -0.302 N 
ATOM     38  C   UNL     1     -49.843  31.823  24.509  1.00  0.00     0.028 A 
ATOM     39  C   UNL     1     -47.733  31.325  23.938  1.00  0.00     0.149 A 
ATOM     40  C   UNL     1     -49.869  31.333  23.224  1.00  0.00     0.072 A 
ATOM     41  H   UNL     1     -50.643  32.178  25.147  1.00  0.00     0.084 H 
ATOM     42  C   UNL     1     -48.539  31.015  22.847  1.00  0.00     0.080 A 
ATOM     43  N   UNL     1     -46.400  31.164  24.010  1.00  0.00    -0.218 NA
ATOM     44  Cl  UNL     1     -51.258  31.136  22.263  1.00  0.00    -0.082 Cl
ATOM     45  C   UNL     1     -47.891  30.498  21.714  1.00  0.00     0.137 A 
ATOM     46  C   UNL     1     -45.896  30.658  22.872  1.00  0.00     0.120 A 
ATOM     47  N   UNL     1     -46.555  30.316  21.753  1.00  0.00    -0.219 NA
ATOM     48  H   UNL     1     -44.821  30.503  22.854  1.00  0.00     0.106 H 
BRANCH  45  49
ATOM     49  N   UNL     1     -48.539  30.143  20.543  1.00  0.00    -0.383 N 
ATOM     50  H   UNL     1     -47.898  30.062  19.764  1.00  0.00     0.158 HD
ATOM     51  H   UNL     1     -49.258  29.437  20.631  1.00  0.00     0.158 HD
ENDBRANCH  45  49
ENDBRANCH  30  37
BRANCH  31  52
ATOM     52  O   UNL     1     -46.145  31.933  27.660  1.00  0.00    -0.386 OA
ATOM     53  H   UNL     1     -45.508  31.233  27.400  1.00  0.00     0.211 HD
ENDBRANCH  31  52
ENDBRANCH   1  26
TORSDOF 9
ENDMDL
MODEL 3
REMARK VINA RESULT:      -9.1      2.094      3.014
REMARK SMILES CNc1ccc2ccc(OC[C@H]3O[C@@H](n4cc(Cl)c5c(N)ncnc54)[C@H](O)[C@@H]3O)cc2n1
REMARK SMILES IDX 11 1 10 4 9 5 3 6 4 7 32 8 5 9 31 11 6 12 30 14 7 15 8 17
REMARK SMILES IDX 2 20 1 22 12 26 13 27 28 28 14 30 26 31 29 35 15 37 16 38
REMARK SMILES IDX 25 39 17 40 19 42 24 43 18 44 20 45 23 46 22 47 21 49 27 52
REMARK H PARENT 11 2 11 3 4 10 5 13 30 16 7 18 8 19 2 21 1 23 1 24 1 25 12 29
REMARK H PARENT 28 32 14 33 26 34 29 36 16 41 23 48 21 50 21 51 27 53
REMARK Flexibility Score: inf
ROOT
ATOM      1  C   UNL     1     -46.328  33.843  26.963  1.00  0.00     0.117 C 
ATOM      2  H   UNL     1     -45.271  34.138  26.986  1.00  0.00     0.073 H 
ATOM      3  H   UNL     1     -46.415  32.831  27.375  1.00  0.00     0.073 H 
ENDROOT
BRANCH   1   4
ATOM      4  O   UNL     1     -46.836  33.889  25.628  1.00  0.00    -0.491 OA
BRANCH   4   5
ATOM      5  C   UNL     1     -46.924  32.701  24.956  1.00  0.00     0.121 A 
ATOM      6  C   UNL     1     -48.971  28.399  25.091  1.00  0.00     0.126 A 
ATOM      7  C   UNL     1     -48.346  28.015  23.911  1.00  0.00    -0.019 A 
ATOM      8  N   UNL     1     -48.769  29.618  25.632  1.00  0.00    -0.231 NA
ATOM      9  C   UNL     1     -47.507  28.913  23.258  1.00  0.00    -0.049 A 
ATOM     10  H   UNL     1     -48.498  27.019  23.507  1.00  0.00     0.066 H 
ATOM     11  C   UNL     1     -47.958  30.491  25.007  1.00  0.00     0.076 A 
ATOM     12  C   UNL     1     -47.300  30.181  23.803  1.00  0.00     0.001 A 
ATOM     13  H   UNL     1     -47.018  28.612  22.335  1.00  0.00     0.063 H 
ATOM     14  C   UNL     1     -47.754  31.749  25.559  1.00  0.00     0.007 A 
ATOM     15  C   UNL     1     -46.463  31.127  23.189  1.00  0.00    -0.049 A 
ATOM     16  H   UNL     1     -48.257  31.990  26.492  1.00  0.00     0.069 H 
ATOM     17  C   UNL     1     -46.276  32.385  23.765  1.00  0.00    -0.019 A 
ATOM     18  H   UNL     1     -45.951  30.889  22.260  1.00  0.00     0.063 H 
ATOM     19  H   UNL     1     -45.621  33.086  23.259  1.00  0.00     0.066 H 
BRANCH   6  20
ATOM     20  N   UNL     1     -49.790  27.456  25.739  1.00  0.00    -0.373 N 
ATOM     21  H   UNL     1     -50.324  27.927  26.464  1.00  0.00     0.161 HD
BRANCH  20  22
ATOM     22  C   UNL     1     -49.077  26.300  26.255  1.00  0.00     0.005 C 
ATOM     23  H   UNL     1     -48.314  26.640  26.961  1.00  0.00     0.045 H 
ATOM     24  H   UNL     1     -48.567  25.750  25.457  1.00  0.00     0.045 H 
ATOM     25  H   UNL     1     -49.745  25.624  26.800  1.00  0.00     0.045 H 
ENDBRANCH  20  22
ENDBRANCH   6  20
ENDBRANCH   4   5
ENDBRANCH   1   4
BRANCH   1  26
ATOM     26  C   UNL     1     -47.141  34.804  27.830  1.00  0.00     0.123 C 
ATOM     27  O   UNL     1     -46.276  35.762  28.458  1.00  0.00    -0.345 OA
ATOM     28  C   UNL     1     -48.164  35.596  27.022  1.00  0.00     0.114 C 
ATOM     29  H   UNL     1     -47.651  34.229  28.614  1.00  0.00     0.067 H 
ATOM     30  C   UNL     1     -47.040  36.978  28.629  1.00  0.00     0.164 C 
ATOM     31  C   UNL     1     -48.376  36.827  27.889  1.00  0.00     0.128 C 
ATOM     32  H   UNL     1     -47.769  35.875  26.041  1.00  0.00     0.066 H 
ATOM     33  H   UNL     1     -47.216  37.089  29.706  1.00  0.00     0.088 H 
ATOM     34  H   UNL     1     -48.677  37.708  27.314  1.00  0.00     0.068 H 
BRANCH  28  35
ATOM     35  O   UNL     1     -49.394  34.895  26.828  1.00  0.00    -0.387 OA
ATOM     36  H   UNL     1     -50.075  35.396  27.320  1.00  0.00     0.211 HD
ENDBRANCH  28  35
BRANCH  30  37
ATOM     37  N   UNL     1     -46.214  38.104  28.217  1.00  0.00    -0.302 N 
ATOM     38  C   UNL     1     -46.440  38.854  27.085  1.00  0.00     0.028 A 
ATOM     39  C   UNL     1     -45.118  38.602  28.878  1.00  0.00     0.149 A 
ATOM     40  C   UNL     1     -45.482  39.841  27.032  1.00  0.00     0.072 A 
ATOM     41  H   UNL     1     -47.263  38.631  26.417  1.00  0.00     0.084 H 
ATOM     42  C   UNL     1     -44.638  39.696  28.163  1.00  0.00     0.080 A 
ATOM     43  N   UNL     1     -44.598  38.111  30.016  1.00  0.00    -0.218 NA
ATOM     44  Cl  UNL     1     -45.334  41.019  25.815  1.00  0.00    -0.082 Cl
ATOM     45  C   UNL     1     -43.513  40.347  28.692  1.00  0.00     0.137 A 
ATOM     46  C   UNL     1     -43.525  38.811  30.420  1.00  0.00     0.120 A 
ATOM     47  N   UNL     1     -42.961  39.877  29.828  1.00  0.00    -0.219 NA
ATOM     48  H   UNL     1     -43.052  38.473  31.337  1.00  0.00     0.106 H 
BRANCH  45  49
ATOM     49  N   UNL     1     -42.911  41.452  28.112  1.00  0.00    -0.383 N 
ATOM     50  H   UNL     1     -42.154  41.813  28.679  1.00  0.00     0.158 HD
ATOM     51  H   UNL     1     -42.764  41.404  27.113  1.00  0.00     0.158 HD
ENDBRANCH  45  49
ENDBRANCH  30  37
BRANCH  31  52
ATOM     52  O   UNL     1     -49.438  36.566  28.827  1.00  0.00    -0.386 OA
ATOM     53  H   UNL     1     -49.602  35.601  28.753  1.00  0.00     0.211 HD
ENDBRANCH  31  52
ENDBRANCH   1  26
TORSDOF 9
ENDMDL
MODEL 4
REMARK VINA RESULT:      -9.1      2.030      2.842
REMARK SMILES CNc1ccc2ccc(OC[C@H]3O[C@@H](n4cc(Cl)c5c(N)ncnc54)[C@H](O)[C@@H]3O)cc2n1
REMARK SMILES IDX 11 1 10 4 9 5 3 6 4 7 32 8 5 9 31 11 6 12 30 14 7 15 8 17
REMARK SMILES IDX 2 20 1 22 12 26 13 27 28 28 14 30 26 31 29 35 15 37 16 38
REMARK SMILES IDX 25 39 17 40 19 42 24 43 18 44 20 45 23 46 22 47 21 49 27 52
REMARK H PARENT 11 2 11 3 4 10 5 13 30 16 7 18 8 19 2 21 1 23 1 24 1 25 12 29
REMARK H PARENT 28 32 14 33 26 34 29 36 16 41 23 48 21 50 21 51 27 53
REMARK Flexibility Score: inf
ROOT
ATOM      1  C   UNL     1     -46.399  34.010  26.393  1.00  0.00     0.117 C 
ATOM      2  H   UNL     1     -46.874  34.256  25.435  1.00  0.00     0.073 H 
ATOM      3  H   UNL     1     -45.335  34.269  26.330  1.00  0.00     0.073 H 
ENDROOT
BRANCH   1   4
ATOM      4  O   UNL     1     -46.563  32.623  26.698  1.00  0.00    -0.491 OA
BRANCH   4   5
ATOM      5  C   UNL     1     -47.269  31.869  25.802  1.00  0.00     0.121 A 
ATOM      6  C   UNL     1     -47.617  30.808  21.169  1.00  0.00     0.126 A 
ATOM      7  C   UNL     1     -48.678  29.941  21.400  1.00  0.00    -0.019 A 
ATOM      8  N   UNL     1     -47.029  31.489  22.173  1.00  0.00    -0.231 NA
ATOM      9  C   UNL     1     -49.136  29.754  22.701  1.00  0.00    -0.049 A 
ATOM     10  H   UNL     1     -49.157  29.425  20.575  1.00  0.00     0.066 H 
ATOM     11  C   UNL     1     -47.467  31.314  23.433  1.00  0.00     0.076 A 
ATOM     12  C   UNL     1     -48.528  30.446  23.750  1.00  0.00     0.001 A 
ATOM     13  H   UNL     1     -49.966  29.077  22.882  1.00  0.00     0.063 H 
ATOM     14  C   UNL     1     -46.860  32.010  24.470  1.00  0.00     0.007 A 
ATOM     15  C   UNL     1     -48.948  30.297  25.082  1.00  0.00    -0.049 A 
ATOM     16  H   UNL     1     -46.044  32.686  24.229  1.00  0.00     0.069 H 
ATOM     17  C   UNL     1     -48.319  31.008  26.105  1.00  0.00    -0.019 A 
ATOM     18  H   UNL     1     -49.770  29.628  25.328  1.00  0.00     0.063 H 
ATOM     19  H   UNL     1     -48.676  30.866  27.119  1.00  0.00     0.066 H 
BRANCH   6  20
ATOM     20  N   UNL     1     -47.198  30.994  19.838  1.00  0.00    -0.373 N 
ATOM     21  H   UNL     1     -47.044  30.085  19.412  1.00  0.00     0.161 HD
BRANCH  20  22
ATOM     22  C   UNL     1     -46.044  31.864  19.691  1.00  0.00     0.005 C 
ATOM     23  H   UNL     1     -45.146  31.247  19.583  1.00  0.00     0.045 H 
ATOM     24  H   UNL     1     -45.903  32.501  20.571  1.00  0.00     0.045 H 
ATOM     25  H   UNL     1     -46.120  32.487  18.793  1.00  0.00     0.045 H 
ENDBRANCH  20  22
ENDBRANCH   6  20
ENDBRANCH   4   5
ENDBRANCH   1   4
BRANCH   1  26
ATOM     26  C   UNL     1     -47.045  34.836  27.505  1.00  0.00     0.123 C 
ATOM     27  O   UNL     1     -46.081  35.719  28.096  1.00  0.00    -0.345 OA
ATOM     28  C   UNL     1     -48.188  35.709  26.995  1.00  0.00     0.114 C 
ATOM     29  H   UNL     1     -47.417  34.154  28.282  1.00  0.00     0.067 H 
ATOM     30  C   UNL     1     -46.797  36.889  28.554  1.00  0.00     0.164 C 
ATOM     31  C   UNL     1     -48.241  36.812  28.039  1.00  0.00     0.128 C 
ATOM     32  H   UNL     1     -47.965  36.120  26.006  1.00  0.00     0.066 H 
ATOM     33  H   UNL     1     -46.785  36.855  29.650  1.00  0.00     0.088 H 
ATOM     34  H   UNL     1     -48.631  37.755  27.645  1.00  0.00     0.068 H 
BRANCH  28  35
ATOM     35  O   UNL     1     -49.437  35.018  26.924  1.00  0.00    -0.387 OA
ATOM     36  H   UNL     1     -50.130  35.690  27.080  1.00  0.00     0.211 HD
ENDBRANCH  28  35
BRANCH  30  37
ATOM     37  N   UNL     1     -46.048  38.072  28.158  1.00  0.00    -0.302 N 
ATOM     38  C   UNL     1     -46.329  38.827  27.041  1.00  0.00     0.028 A 
ATOM     39  C   UNL     1     -44.981  38.628  28.822  1.00  0.00     0.149 A 
ATOM     40  C   UNL     1     -45.436  39.873  27.000  1.00  0.00     0.072 A 
ATOM     41  H   UNL     1     -47.139  38.563  26.373  1.00  0.00     0.084 H 
ATOM     42  C   UNL     1     -44.577  39.763  28.125  1.00  0.00     0.080 A 
ATOM     43  N   UNL     1     -44.424  38.151  29.948  1.00  0.00    -0.218 NA
ATOM     44  Cl  UNL     1     -45.372  41.080  25.805  1.00  0.00    -0.082 Cl
ATOM     45  C   UNL     1     -43.493  40.476  28.659  1.00  0.00     0.137 A 
ATOM     46  C   UNL     1     -43.395  38.911  30.358  1.00  0.00     0.120 A 
ATOM     47  N   UNL     1     -42.904  40.022  29.783  1.00  0.00    -0.219 NA
ATOM     48  H   UNL     1     -42.895  38.588  31.267  1.00  0.00     0.106 H 
BRANCH  45  49
ATOM     49  N   UNL     1     -42.967  41.627  28.097  1.00  0.00    -0.383 N 
ATOM     50  H   UNL     1     -43.690  42.243  27.747  1.00  0.00     0.158 HD
ATOM     51  H   UNL     1     -42.194  42.050  28.593  1.00  0.00     0.158 HD
ENDBRANCH  45  49
ENDBRANCH  30  37
BRANCH  31  52
ATOM     52  O   UNL     1     -49.127  36.413  29.103  1.00  0.00    -0.386 OA
ATOM     53  H   UNL     1     -49.092  37.154  29.746  1.00  0.00     0.211 HD
ENDBRANCH  31  52
ENDBRANCH   1  26
TORSDOF 9
ENDMDL
MODEL 5
REMARK VINA RESULT:      -9.0      2.440      3.513
REMARK SMILES CNc1ccc2ccc(OC[C@H]3O[C@@H](n4cc(Cl)c5c(N)ncnc54)[C@H](O)[C@@H]3O)cc2n1
REMARK SMILES IDX 11 1 10 4 9 5 3 6 4 7 32 8 5 9 31 11 6 12 30 14 7 15 8 17
REMARK SMILES IDX 2 20 1 22 12 26 13 27 28 28 14 30 26 31 29 35 15 37 16 38
REMARK SMILES IDX 25 39 17 40 19 42 24 43 18 44 20 45 23 46 22 47 21 49 27 52
REMARK H PARENT 11 2 11 3 4 10 5 13 30 16 7 18 8 19 2 21 1 23 1 24 1 25 12 29
REMARK H PARENT 28 32 14 33 26 34 29 36 16 41 23 48 21 50 21 51 27 53
REMARK Flexibility Score: inf
ROOT
ATOM      1  C   UNL     1     -46.236  34.260  26.913  1.00  0.00     0.117 C 
ATOM      2  H   UNL     1     -46.397  34.510  25.857  1.00  0.00     0.073 H 
ATOM      3  H   UNL     1     -45.179  34.427  27.152  1.00  0.00     0.073 H 
ENDROOT
BRANCH   1   4
ATOM      4  O   UNL     1     -46.603  32.903  27.173  1.00  0.00    -0.491 OA
BRANCH   4   5
ATOM      5  C   UNL     1     -47.191  32.212  26.150  1.00  0.00     0.121 A 
ATOM      6  C   UNL     1     -46.604  30.928  21.598  1.00  0.00     0.126 A 
ATOM      7  C   UNL     1     -47.817  30.250  21.585  1.00  0.00    -0.019 A 
ATOM      8  N   UNL     1     -46.166  31.573  22.699  1.00  0.00    -0.231 NA
ATOM      9  C   UNL     1     -48.593  30.217  22.739  1.00  0.00    -0.049 A 
ATOM     10  H   UNL     1     -48.165  29.763  20.681  1.00  0.00     0.066 H 
ATOM     11  C   UNL     1     -46.913  31.547  23.818  1.00  0.00     0.076 A 
ATOM     12  C   UNL     1     -48.146  30.872  23.888  1.00  0.00     0.001 A 
ATOM     13  H   UNL     1     -49.543  29.688  22.729  1.00  0.00     0.063 H 
ATOM     14  C   UNL     1     -46.462  32.205  24.955  1.00  0.00     0.007 A 
ATOM     15  C   UNL     1     -48.888  30.874  25.081  1.00  0.00    -0.049 A 
ATOM     16  H   UNL     1     -45.513  32.731  24.903  1.00  0.00     0.069 H 
ATOM     17  C   UNL     1     -48.410  31.543  26.209  1.00  0.00    -0.019 A 
ATOM     18  H   UNL     1     -49.842  30.356  25.136  1.00  0.00     0.063 H 
ATOM     19  H   UNL     1     -49.015  31.520  27.109  1.00  0.00     0.066 H 
BRANCH   6  20
ATOM     20  N   UNL     1     -45.858  30.964  20.405  1.00  0.00    -0.373 N 
ATOM     21  H   UNL     1     -44.869  30.964  20.635  1.00  0.00     0.161 HD
BRANCH  20  22
ATOM     22  C   UNL     1     -46.207  32.058  19.515  1.00  0.00     0.005 C 
ATOM     23  H   UNL     1     -45.536  32.041  18.651  1.00  0.00     0.045 H 
ATOM     24  H   UNL     1     -46.090  33.031  20.006  1.00  0.00     0.045 H 
ATOM     25  H   UNL     1     -47.230  31.958  19.135  1.00  0.00     0.045 H 
ENDBRANCH  20  22
ENDBRANCH   6  20
ENDBRANCH   4   5
ENDBRANCH   1   4
BRANCH   1  26
ATOM     26  C   UNL     1     -47.093  35.175  27.787  1.00  0.00     0.123 C 
ATOM     27  O   UNL     1     -46.325  36.304  28.229  1.00  0.00    -0.345 OA
ATOM     28  C   UNL     1     -48.302  35.730  27.042  1.00  0.00     0.114 C 
ATOM     29  H   UNL     1     -47.426  34.613  28.669  1.00  0.00     0.067 H 
ATOM     30  C   UNL     1     -47.244  37.410  28.388  1.00  0.00     0.164 C 
ATOM     31  C   UNL     1     -48.610  36.996  27.823  1.00  0.00     0.128 C 
ATOM     32  H   UNL     1     -48.058  35.964  26.002  1.00  0.00     0.066 H 
ATOM     33  H   UNL     1     -47.323  37.600  29.465  1.00  0.00     0.088 H 
ATOM     34  H   UNL     1     -49.100  37.764  27.217  1.00  0.00     0.068 H 
BRANCH  28  35
ATOM     35  O   UNL     1     -49.424  34.844  27.050  1.00  0.00    -0.387 OA
ATOM     36  H   UNL     1     -50.218  35.408  26.959  1.00  0.00     0.211 HD
ENDBRANCH  28  35
BRANCH  30  37
ATOM     37  N   UNL     1     -46.647  38.596  27.791  1.00  0.00    -0.302 N 
ATOM     38  C   UNL     1     -45.304  38.730  27.518  1.00  0.00     0.028 A 
ATOM     39  C   UNL     1     -47.305  39.735  27.396  1.00  0.00     0.149 A 
ATOM     40  C   UNL     1     -45.111  39.963  26.939  1.00  0.00     0.072 A 
ATOM     41  H   UNL     1     -44.601  37.940  27.750  1.00  0.00     0.084 H 
ATOM     42  C   UNL     1     -46.370  40.612  26.852  1.00  0.00     0.080 A 
ATOM     43  N   UNL     1     -48.623  39.963  27.522  1.00  0.00    -0.218 NA
ATOM     44  Cl  UNL     1     -43.619  40.599  26.426  1.00  0.00    -0.082 Cl
ATOM     45  C   UNL     1     -46.860  41.841  26.383  1.00  0.00     0.137 A 
ATOM     46  C   UNL     1     -48.971  41.169  27.045  1.00  0.00     0.120 A 
ATOM     47  N   UNL     1     -48.176  42.105  26.500  1.00  0.00    -0.219 NA
ATOM     48  H   UNL     1     -50.025  41.423  27.111  1.00  0.00     0.106 H 
BRANCH  45  49
ATOM     49  N   UNL     1     -46.071  42.823  25.809  1.00  0.00    -0.383 N 
ATOM     50  H   UNL     1     -45.645  42.512  24.945  1.00  0.00     0.158 HD
ATOM     51  H   UNL     1     -46.444  43.762  25.834  1.00  0.00     0.158 HD
ENDBRANCH  45  49
ENDBRANCH  30  37
BRANCH  31  52
ATOM     52  O   UNL     1     -49.517  36.680  28.897  1.00  0.00    -0.386 OA
ATOM     53  H   UNL     1     -49.866  35.791  28.672  1.00  0.00     0.211 HD
ENDBRANCH  31  52
ENDBRANCH   1  26
TORSDOF 9
ENDMDL
MODEL 6
REMARK VINA RESULT:      -8.8      2.925      4.004
REMARK SMILES CNc1ccc2ccc(OC[C@H]3O[C@@H](n4cc(Cl)c5c(N)ncnc54)[C@H](O)[C@@H]3O)cc2n1
REMARK SMILES IDX 11 1 10 4 9 5 3 6 4 7 32 8 5 9 31 11 6 12 30 14 7 15 8 17
REMARK SMILES IDX 2 20 1 22 12 26 13 27 28 28 14 30 26 31 29 35 15 37 16 38
REMARK SMILES IDX 25 39 17 40 19 42 24 43 18 44 20 45 23 46 22 47 21 49 27 52
REMARK H PARENT 11 2 11 3 4 10 5 13 30 16 7 18 8 19 2 21 1 23 1 24 1 25 12 29
REMARK H PARENT 28 32 14 33 26 34 29 36 16 41 23 48 21 50 21 51 27 53
REMARK Flexibility Score: inf
ROOT
ATOM      1  C   UNL     1     -46.674  34.919  26.334  1.00  0.00     0.117 C 
ATOM      2  H   UNL     1     -47.581  35.381  25.922  1.00  0.00     0.073 H 
ATOM      3  H   UNL     1     -45.946  34.800  25.523  1.00  0.00     0.073 H 
ENDROOT
BRANCH   1   4
ATOM      4  O   UNL     1     -46.976  33.656  26.930  1.00  0.00    -0.491 OA
BRANCH   4   5
ATOM      5  C   UNL     1     -47.323  32.638  26.085  1.00  0.00     0.121 A 
ATOM      6  C   UNL     1     -46.451  30.815  21.768  1.00  0.00     0.126 A 
ATOM      7  C   UNL     1     -47.367  29.789  21.966  1.00  0.00    -0.019 A 
ATOM      8  N   UNL     1     -46.228  31.755  22.710  1.00  0.00    -0.231 NA
ATOM      9  C   UNL     1     -48.059  29.714  23.171  1.00  0.00    -0.049 A 
ATOM     10  H   UNL     1     -47.554  29.060  21.185  1.00  0.00     0.066 H 
ATOM     11  C   UNL     1     -46.895  31.690  23.877  1.00  0.00     0.076 A 
ATOM     12  C   UNL     1     -47.829  30.675  24.157  1.00  0.00     0.001 A 
ATOM     13  H   UNL     1     -48.777  28.913  23.326  1.00  0.00     0.063 H 
ATOM     14  C   UNL     1     -46.664  32.653  24.850  1.00  0.00     0.007 A 
ATOM     15  C   UNL     1     -48.499  30.651  25.391  1.00  0.00    -0.049 A 
ATOM     16  H   UNL     1     -45.947  33.440  24.635  1.00  0.00     0.069 H 
ATOM     17  C   UNL     1     -48.246  31.631  26.352  1.00  0.00    -0.019 A 
ATOM     18  H   UNL     1     -49.224  29.869  25.609  1.00  0.00     0.063 H 
ATOM     19  H   UNL     1     -48.786  31.576  27.291  1.00  0.00     0.066 H 
BRANCH   6  20
ATOM     20  N   UNL     1     -45.789  30.876  20.527  1.00  0.00    -0.373 N 
ATOM     21  H   UNL     1     -44.787  30.904  20.690  1.00  0.00     0.161 HD
BRANCH  20  22
ATOM     22  C   UNL     1     -46.229  31.963  19.668  1.00  0.00     0.005 C 
ATOM     23  H   UNL     1     -46.487  32.824  20.291  1.00  0.00     0.045 H 
ATOM     24  H   UNL     1     -47.123  31.689  19.096  1.00  0.00     0.045 H 
ATOM     25  H   UNL     1     -45.436  32.281  18.984  1.00  0.00     0.045 H 
ENDBRANCH  20  22
ENDBRANCH   6  20
ENDBRANCH   4   5
ENDBRANCH   1   4
BRANCH   1  26
ATOM     26  C   UNL     1     -46.081  35.836  27.404  1.00  0.00     0.123 C 
ATOM     27  O   UNL     1     -46.145  37.205  26.978  1.00  0.00    -0.345 OA
ATOM     28  C   UNL     1     -46.833  35.751  28.728  1.00  0.00     0.114 C 
ATOM     29  H   UNL     1     -45.028  35.566  27.557  1.00  0.00     0.067 H 
ATOM     30  C   UNL     1     -46.277  38.016  28.169  1.00  0.00     0.164 C 
ATOM     31  C   UNL     1     -46.508  37.090  29.370  1.00  0.00     0.128 C 
ATOM     32  H   UNL     1     -47.910  35.646  28.570  1.00  0.00     0.066 H 
ATOM     33  H   UNL     1     -45.330  38.556  28.286  1.00  0.00     0.088 H 
ATOM     34  H   UNL     1     -47.284  37.431  30.061  1.00  0.00     0.068 H 
BRANCH  28  35
ATOM     35  O   UNL     1     -46.395  34.672  29.557  1.00  0.00    -0.387 OA
ATOM     36  H   UNL     1     -47.197  34.164  29.792  1.00  0.00     0.211 HD
ENDBRANCH  28  35
BRANCH  30  37
ATOM     37  N   UNL     1     -47.308  39.016  27.934  1.00  0.00    -0.302 N 
ATOM     38  C   UNL     1     -48.618  38.883  28.337  1.00  0.00     0.028 A 
ATOM     39  C   UNL     1     -47.149  40.228  27.307  1.00  0.00     0.149 A 
ATOM     40  C   UNL     1     -49.293  40.025  27.969  1.00  0.00     0.072 A 
ATOM     41  H   UNL     1     -48.960  37.997  28.856  1.00  0.00     0.084 H 
ATOM     42  C   UNL     1     -48.374  40.888  27.317  1.00  0.00     0.080 A 
ATOM     43  N   UNL     1     -46.005  40.689  26.773  1.00  0.00    -0.218 NA
ATOM     44  Cl  UNL     1     -50.941  40.337  28.241  1.00  0.00    -0.082 Cl
ATOM     45  C   UNL     1     -48.408  42.158  26.721  1.00  0.00     0.137 A 
ATOM     46  C   UNL     1     -46.163  41.907  26.229  1.00  0.00     0.120 A 
ATOM     47  N   UNL     1     -47.281  42.650  26.169  1.00  0.00    -0.219 NA
ATOM     48  H   UNL     1     -45.277  42.347  25.779  1.00  0.00     0.106 H 
BRANCH  45  49
ATOM     49  N   UNL     1     -49.540  42.952  26.649  1.00  0.00    -0.383 N 
ATOM     50  H   UNL     1     -50.296  42.590  27.216  1.00  0.00     0.158 HD
ATOM     51  H   UNL     1     -49.382  43.951  26.665  1.00  0.00     0.158 HD
ENDBRANCH  45  49
ENDBRANCH  30  37
BRANCH  31  52
ATOM     52  O   UNL     1     -45.298  36.962  30.141  1.00  0.00    -0.386 OA
ATOM     53  H   UNL     1     -45.237  37.802  30.646  1.00  0.00     0.211 HD
ENDBRANCH  31  52
ENDBRANCH   1  26
TORSDOF 9
ENDMDL
MODEL 7
REMARK VINA RESULT:      -8.6      3.679      5.489
REMARK SMILES CNc1ccc2ccc(OC[C@H]3O[C@@H](n4cc(Cl)c5c(N)ncnc54)[C@H](O)[C@@H]3O)cc2n1
REMARK SMILES IDX 11 1 10 4 9 5 3 6 4 7 32 8 5 9 31 11 6 12 30 14 7 15 8 17
REMARK SMILES IDX 2 20 1 22 12 26 13 27 28 28 14 30 26 31 29 35 15 37 16 38
REMARK SMILES IDX 25 39 17 40 19 42 24 43 18 44 20 45 23 46 22 47 21 49 27 52
REMARK H PARENT 11 2 11 3 4 10 5 13 30 16 7 18 8 19 2 21 1 23 1 24 1 25 12 29
REMARK H PARENT 28 32 14 33 26 34 29 36 16 41 23 48 21 50 21 51 27 53
REMARK Flexibility Score: inf
ROOT
ATOM      1  C   UNL     1     -47.321  32.860  24.689  1.00  0.00     0.117 C 
ATOM      2  H   UNL     1     -47.557  33.556  23.873  1.00  0.00     0.073 H 
ATOM      3  H   UNL     1     -46.770  32.009  24.272  1.00  0.00     0.073 H 
ENDROOT
BRANCH   1   4
ATOM      4  O   UNL     1     -48.515  32.417  25.337  1.00  0.00    -0.491 OA
BRANCH   4   5
ATOM      5  C   UNL     1     -49.027  31.212  24.942  1.00  0.00     0.121 A 
ATOM      6  C   UNL     1     -49.095  26.572  26.026  1.00  0.00     0.126 A 
ATOM      7  C   UNL     1     -49.926  26.286  24.950  1.00  0.00    -0.019 A 
ATOM      8  N   UNL     1     -48.669  27.827  26.276  1.00  0.00    -0.231 NA
ATOM      9  C   UNL     1     -50.348  27.319  24.119  1.00  0.00    -0.049 A 
ATOM     10  H   UNL     1     -50.233  25.265  24.748  1.00  0.00     0.066 H 
ATOM     11  C   UNL     1     -49.072  28.831  25.477  1.00  0.00     0.076 A 
ATOM     12  C   UNL     1     -49.923  28.625  24.375  1.00  0.00     0.001 A 
ATOM     13  H   UNL     1     -50.997  27.096  23.277  1.00  0.00     0.063 H 
ATOM     14  C   UNL     1     -48.640  30.125  25.735  1.00  0.00     0.007 A 
ATOM     15  C   UNL     1     -50.316  29.706  23.570  1.00  0.00    -0.049 A 
ATOM     16  H   UNL     1     -47.980  30.288  26.582  1.00  0.00     0.069 H 
ATOM     17  C   UNL     1     -49.868  30.997  23.854  1.00  0.00    -0.019 A 
ATOM     18  H   UNL     1     -50.971  29.548  22.716  1.00  0.00     0.063 H 
ATOM     19  H   UNL     1     -50.194  31.804  23.206  1.00  0.00     0.066 H 
BRANCH   6  20
ATOM     20  N   UNL     1     -48.665  25.498  26.829  1.00  0.00    -0.373 N 
ATOM     21  H   UNL     1     -48.976  25.656  27.783  1.00  0.00     0.161 HD
BRANCH  20  22
ATOM     22  C   UNL     1     -47.237  25.236  26.761  1.00  0.00     0.005 C 
ATOM     23  H   UNL     1     -46.742  25.759  27.585  1.00  0.00     0.045 H 
ATOM     24  H   UNL     1     -46.802  25.606  25.826  1.00  0.00     0.045 H 
ATOM     25  H   UNL     1     -47.018  24.169  26.874  1.00  0.00     0.045 H 
ENDBRANCH  20  22
ENDBRANCH   6  20
ENDBRANCH   4   5
ENDBRANCH   1   4
BRANCH   1  26
ATOM     26  C   UNL     1     -46.439  33.567  25.718  1.00  0.00     0.123 C 
ATOM     27  O   UNL     1     -46.641  34.986  25.658  1.00  0.00    -0.345 OA
ATOM     28  C   UNL     1     -46.750  33.137  27.148  1.00  0.00     0.114 C 
ATOM     29  H   UNL     1     -45.386  33.354  25.487  1.00  0.00     0.067 H 
ATOM     30  C   UNL     1     -46.411  35.506  26.988  1.00  0.00     0.164 C 
ATOM     31  C   UNL     1     -46.257  34.326  27.956  1.00  0.00     0.128 C 
ATOM     32  H   UNL     1     -47.823  32.985  27.295  1.00  0.00     0.066 H 
ATOM     33  H   UNL     1     -45.479  36.082  26.942  1.00  0.00     0.088 H 
ATOM     34  H   UNL     1     -46.788  34.447  28.905  1.00  0.00     0.068 H 
BRANCH  28  35
ATOM     35  O   UNL     1     -46.069  31.942  27.538  1.00  0.00    -0.387 OA
ATOM     36  H   UNL     1     -46.574  31.200  27.148  1.00  0.00     0.211 HD
ENDBRANCH  28  35
BRANCH  30  37
ATOM     37  N   UNL     1     -47.475  36.449  27.305  1.00  0.00    -0.302 N 
ATOM     38  C   UNL     1     -48.800  36.100  27.443  1.00  0.00     0.028 A 
ATOM     39  C   UNL     1     -47.336  37.797  27.531  1.00  0.00     0.149 A 
ATOM     40  C   UNL     1     -49.506  37.237  27.766  1.00  0.00     0.072 A 
ATOM     41  H   UNL     1     -49.130  35.078  27.307  1.00  0.00     0.084 H 
ATOM     42  C   UNL     1     -48.591  38.320  27.828  1.00  0.00     0.080 A 
ATOM     43  N   UNL     1     -46.185  38.487  27.469  1.00  0.00    -0.218 NA
ATOM     44  Cl  UNL     1     -51.182  37.323  28.033  1.00  0.00    -0.082 Cl
ATOM     45  C   UNL     1     -48.651  39.696  28.098  1.00  0.00     0.137 A 
ATOM     46  C   UNL     1     -46.368  39.790  27.739  1.00  0.00     0.120 A 
ATOM     47  N   UNL     1     -47.516  40.422  28.037  1.00  0.00    -0.219 NA
ATOM     48  H   UNL     1     -45.479  40.413  27.711  1.00  0.00     0.106 H 
BRANCH  45  49
ATOM     49  N   UNL     1     -49.814  40.376  28.416  1.00  0.00    -0.383 N 
ATOM     50  H   UNL     1     -50.171  40.114  29.326  1.00  0.00     0.158 HD
ATOM     51  H   UNL     1     -49.835  41.357  28.171  1.00  0.00     0.158 HD
ENDBRANCH  45  49
ENDBRANCH  30  37
BRANCH  31  52
ATOM     52  O   UNL     1     -44.868  34.130  28.285  1.00  0.00    -0.386 OA
ATOM     53  H   UNL     1     -44.382  34.712  27.661  1.00  0.00     0.211 HD
ENDBRANCH  31  52
ENDBRANCH   1  26
TORSDOF 9
ENDMDL
