MODEL 1
REMARK VINA RESULT:     -10.1      0.000      0.000
REMARK SMILES CNc1ccc2ccc(COc3cncc(-n4ccc5c(N)ncnc54)c3)cc2n1
REMARK SMILES IDX 10 1 9 4 3 5 4 6 30 7 5 8 29 10 6 11 28 13 7 14 8 16 2 19
REMARK SMILES IDX 1 21 11 25 12 26 13 27 27 28 14 29 16 31 15 33 17 35 18 36
REMARK SMILES IDX 26 37 19 38 20 40 25 41 21 43 24 44 23 45 22 47
REMARK H PARENT 10 2 10 3 4 9 5 12 28 15 7 17 8 18 2 20 1 22 1 23 1 24 13 30
REMARK H PARENT 27 32 15 34 18 39 19 42 24 46 22 48 22 49
REMARK Flexibility Score: inf
ROOT
ATOM      1  C   UNL     1     -47.199  34.988  26.438  1.00  0.00     0.113 C 
ATOM      2  H   UNL     1     -48.127  35.566  26.534  1.00  0.00     0.076 H 
ATOM      3  H   UNL     1     -46.541  35.578  25.789  1.00  0.00     0.076 H 
ENDROOT
BRANCH   1   4
ATOM      4  C   UNL     1     -47.558  33.651  25.834  1.00  0.00    -0.009 A 
ATOM      5  C   UNL     1     -46.360  30.095  22.897  1.00  0.00     0.126 A 
ATOM      6  C   UNL     1     -47.506  29.379  23.208  1.00  0.00    -0.019 A 
ATOM      7  N   UNL     1     -46.087  31.291  23.452  1.00  0.00    -0.231 NA
ATOM      8  C   UNL     1     -48.421  29.922  24.104  1.00  0.00    -0.049 A 
ATOM      9  H   UNL     1     -47.683  28.399  22.779  1.00  0.00     0.066 H 
ATOM     10  C   UNL     1     -46.969  31.820  24.321  1.00  0.00     0.073 A 
ATOM     11  C   UNL     1     -48.163  31.169  24.681  1.00  0.00     0.000 A 
ATOM     12  H   UNL     1     -49.319  29.365  24.355  1.00  0.00     0.063 H 
ATOM     13  C   UNL     1     -46.696  33.053  24.898  1.00  0.00    -0.029 A 
ATOM     14  C   UNL     1     -49.049  31.762  25.595  1.00  0.00    -0.052 A 
ATOM     15  H   UNL     1     -45.768  33.550  24.622  1.00  0.00     0.065 H 
ATOM     16  C   UNL     1     -48.749  32.999  26.165  1.00  0.00    -0.055 A 
ATOM     17  H   UNL     1     -49.973  31.260  25.875  1.00  0.00     0.063 H 
ATOM     18  H   UNL     1     -49.440  33.442  26.879  1.00  0.00     0.063 H 
BRANCH   5  19
ATOM     19  N   UNL     1     -45.389  29.608  22.024  1.00  0.00    -0.373 N 
ATOM     20  H   UNL     1     -45.906  29.379  21.176  1.00  0.00     0.161 HD
BRANCH  19  21
ATOM     21  C   UNL     1     -44.650  28.460  22.524  1.00  0.00     0.005 C 
ATOM     22  H   UNL     1     -43.573  28.570  22.352  1.00  0.00     0.045 H 
ATOM     23  H   UNL     1     -44.998  27.526  22.073  1.00  0.00     0.045 H 
ATOM     24  H   UNL     1     -44.809  28.378  23.604  1.00  0.00     0.045 H 
ENDBRANCH  19  21
ENDBRANCH   5  19
ENDBRANCH   1   4
BRANCH   1  25
ATOM     25  O   UNL     1     -46.647  34.879  27.755  1.00  0.00    -0.487 OA
BRANCH  25  26
ATOM     26  C   UNL     1     -46.233  36.021  28.380  1.00  0.00     0.140 A 
ATOM     27  C   UNL     1     -46.299  36.014  29.766  1.00  0.00     0.069 A 
ATOM     28  C   UNL     1     -45.733  37.171  27.766  1.00  0.00     0.007 A 
ATOM     29  N   UNL     1     -45.932  37.050  30.553  1.00  0.00    -0.259 NA
ATOM     30  H   UNL     1     -46.670  35.142  30.298  1.00  0.00     0.088 H 
ATOM     31  C   UNL     1     -45.326  38.266  28.540  1.00  0.00     0.069 A 
ATOM     32  H   UNL     1     -45.669  37.212  26.689  1.00  0.00     0.069 H 
ATOM     33  C   UNL     1     -45.454  38.149  29.922  1.00  0.00     0.051 A 
ATOM     34  H   UNL     1     -45.150  38.928  30.615  1.00  0.00     0.086 H 
BRANCH  31  35
ATOM     35  N   UNL     1     -44.795  39.460  27.952  1.00  0.00    -0.299 N 
ATOM     36  C   UNL     1     -45.258  40.045  26.781  1.00  0.00     0.012 A 
ATOM     37  C   UNL     1     -43.740  40.252  28.417  1.00  0.00     0.150 A 
ATOM     38  C   UNL     1     -44.519  41.171  26.504  1.00  0.00    -0.031 A 
ATOM     39  H   UNL     1     -46.068  39.615  26.208  1.00  0.00     0.082 H 
ATOM     40  C   UNL     1     -43.559  41.312  27.533  1.00  0.00     0.061 A 
ATOM     41  N   UNL     1     -43.023  40.067  29.544  1.00  0.00    -0.218 NA
ATOM     42  H   UNL     1     -44.660  41.828  25.655  1.00  0.00     0.065 H 
ATOM     43  C   UNL     1     -42.545  42.234  27.833  1.00  0.00     0.136 A 
ATOM     44  C   UNL     1     -42.097  41.017  29.739  1.00  0.00     0.120 A 
ATOM     45  N   UNL     1     -41.815  42.066  28.947  1.00  0.00    -0.219 NA
ATOM     46  H   UNL     1     -41.500  40.929  30.641  1.00  0.00     0.106 H 
BRANCH  43  47
ATOM     47  N   UNL     1     -42.238  43.324  27.031  1.00  0.00    -0.383 N 
ATOM     48  H   UNL     1     -42.130  44.199  27.524  1.00  0.00     0.158 HD
ATOM     49  H   UNL     1     -42.840  43.339  26.214  1.00  0.00     0.158 HD
ENDBRANCH  43  47
ENDBRANCH  31  35
ENDBRANCH  25  26
ENDBRANCH   1  25
TORSDOF 7
ENDMDL
MODEL 2
REMARK VINA RESULT:      -9.8      1.642     10.265
REMARK SMILES CNc1ccc2ccc(COc3cncc(-n4ccc5c(N)ncnc54)c3)cc2n1
REMARK SMILES IDX 10 1 9 4 3 5 4 6 30 7 5 8 29 10 6 11 28 13 7 14 8 16 2 19
REMARK SMILES IDX 1 21 11 25 12 26 13 27 27 28 14 29 16 31 15 33 17 35 18 36
REMARK SMILES IDX 26 37 19 38 20 40 25 41 21 43 24 44 23 45 22 47
REMARK H PARENT 10 2 10 3 4 9 5 12 28 15 7 17 8 18 2 20 1 22 1 23 1 24 13 30
REMARK H PARENT 27 32 15 34 18 39 19 42 24 46 22 48 22 49
REMARK Flexibility Score: inf
ROOT
ATOM      1  C   UNL     1     -46.880  37.409  26.788  1.00  0.00     0.113 C 
ATOM      2  H   UNL     1     -46.377  36.899  25.957  1.00  0.00     0.076 H 
ATOM      3  H   UNL     1     -47.595  38.103  26.329  1.00  0.00     0.076 H 
ENDROOT
BRANCH   1   4
ATOM      4  C   UNL     1     -45.817  38.123  27.591  1.00  0.00    -0.009 A 
ATOM      5  C   UNL     1     -42.697  41.714  27.864  1.00  0.00     0.126 A 
ATOM      6  C   UNL     1     -42.297  41.343  29.139  1.00  0.00    -0.019 A 
ATOM      7  N   UNL     1     -43.641  41.039  27.181  1.00  0.00    -0.231 NA
ATOM      8  C   UNL     1     -42.870  40.220  29.727  1.00  0.00    -0.049 A 
ATOM      9  H   UNL     1     -41.565  41.927  29.685  1.00  0.00     0.066 H 
ATOM     10  C   UNL     1     -44.198  39.952  27.746  1.00  0.00     0.073 A 
ATOM     11  C   UNL     1     -43.842  39.497  29.029  1.00  0.00     0.000 A 
ATOM     12  H   UNL     1     -42.565  39.924  30.727  1.00  0.00     0.063 H 
ATOM     13  C   UNL     1     -45.172  39.249  27.050  1.00  0.00    -0.029 A 
ATOM     14  C   UNL     1     -44.456  38.359  29.576  1.00  0.00    -0.052 A 
ATOM     15  H   UNL     1     -45.450  39.610  26.061  1.00  0.00     0.065 H 
ATOM     16  C   UNL     1     -45.436  37.674  28.857  1.00  0.00    -0.055 A 
ATOM     17  H   UNL     1     -44.183  38.004  30.568  1.00  0.00     0.063 H 
ATOM     18  H   UNL     1     -45.911  36.799  29.298  1.00  0.00     0.063 H 
BRANCH   5  19
ATOM     19  N   UNL     1     -42.183  42.838  27.218  1.00  0.00    -0.373 N 
ATOM     20  H   UNL     1     -42.089  43.531  27.960  1.00  0.00     0.161 HD
BRANCH  19  21
ATOM     21  C   UNL     1     -43.003  43.332  26.126  1.00  0.00     0.005 C 
ATOM     22  H   UNL     1     -43.321  44.367  26.298  1.00  0.00     0.045 H 
ATOM     23  H   UNL     1     -43.884  42.704  25.963  1.00  0.00     0.045 H 
ATOM     24  H   UNL     1     -42.415  43.314  25.203  1.00  0.00     0.045 H 
ENDBRANCH  19  21
ENDBRANCH   5  19
ENDBRANCH   1   4
BRANCH   1  25
ATOM     25  O   UNL     1     -47.563  36.398  27.537  1.00  0.00    -0.487 OA
BRANCH  25  26
ATOM     26  C   UNL     1     -47.311  35.089  27.236  1.00  0.00     0.140 A 
ATOM     27  C   UNL     1     -46.434  34.429  28.086  1.00  0.00     0.069 A 
ATOM     28  C   UNL     1     -47.860  34.355  26.185  1.00  0.00     0.007 A 
ATOM     29  N   UNL     1     -46.066  33.135  27.950  1.00  0.00    -0.259 NA
ATOM     30  H   UNL     1     -45.984  34.948  28.928  1.00  0.00     0.088 H 
ATOM     31  C   UNL     1     -47.522  33.007  26.009  1.00  0.00     0.069 A 
ATOM     32  H   UNL     1     -48.545  34.837  25.503  1.00  0.00     0.069 H 
ATOM     33  C   UNL     1     -46.619  32.456  26.916  1.00  0.00     0.051 A 
ATOM     34  H   UNL     1     -46.304  31.418  26.884  1.00  0.00     0.086 H 
BRANCH  31  35
ATOM     35  N   UNL     1     -48.074  32.213  24.951  1.00  0.00    -0.299 N 
ATOM     36  C   UNL     1     -49.429  31.995  24.744  1.00  0.00     0.012 A 
ATOM     37  C   UNL     1     -47.389  31.523  23.947  1.00  0.00     0.150 A 
ATOM     38  C   UNL     1     -49.603  31.184  23.647  1.00  0.00    -0.031 A 
ATOM     39  H   UNL     1     -50.182  32.410  25.400  1.00  0.00     0.082 H 
ATOM     40  C   UNL     1     -48.320  30.883  23.134  1.00  0.00     0.061 A 
ATOM     41  N   UNL     1     -46.055  31.489  23.751  1.00  0.00    -0.218 NA
ATOM     42  H   UNL     1     -50.555  30.852  23.250  1.00  0.00     0.065 H 
ATOM     43  C   UNL     1     -47.828  30.138  22.052  1.00  0.00     0.136 A 
ATOM     44  C   UNL     1     -45.700  30.765  22.679  1.00  0.00     0.120 A 
ATOM     45  N   UNL     1     -46.502  30.086  21.842  1.00  0.00    -0.219 NA
ATOM     46  H   UNL     1     -44.637  30.717  22.462  1.00  0.00     0.106 H 
BRANCH  43  47
ATOM     47  N   UNL     1     -48.638  29.432  21.175  1.00  0.00    -0.383 N 
ATOM     48  H   UNL     1     -49.558  29.210  21.528  1.00  0.00     0.158 HD
ATOM     49  H   UNL     1     -48.118  28.665  20.759  1.00  0.00     0.158 HD
ENDBRANCH  43  47
ENDBRANCH  31  35
ENDBRANCH  25  26
ENDBRANCH   1  25
TORSDOF 7
ENDMDL
MODEL 3
REMARK VINA RESULT:      -9.7      1.661      2.603
REMARK SMILES CNc1ccc2ccc(COc3cncc(-n4ccc5c(N)ncnc54)c3)cc2n1
REMARK SMILES IDX 10 1 9 4 3 5 4 6 30 7 5 8 29 10 6 11 28 13 7 14 8 16 2 19
REMARK SMILES IDX 1 21 11 25 12 26 13 27 27 28 14 29 16 31 15 33 17 35 18 36
REMARK SMILES IDX 26 37 19 38 20 40 25 41 21 43 24 44 23 45 22 47
REMARK H PARENT 10 2 10 3 4 9 5 12 28 15 7 17 8 18 2 20 1 22 1 23 1 24 13 30
REMARK H PARENT 27 32 15 34 18 39 19 42 24 46 22 48 22 49
REMARK Flexibility Score: inf
ROOT
ATOM      1  C   UNL     1     -48.022  34.509  26.660  1.00  0.00     0.113 C 
ATOM      2  H   UNL     1     -47.941  34.222  27.716  1.00  0.00     0.076 H 
ATOM      3  H   UNL     1     -49.051  34.863  26.521  1.00  0.00     0.076 H 
ENDROOT
BRANCH   1   4
ATOM      4  C   UNL     1     -47.717  33.283  25.832  1.00  0.00    -0.009 A 
ATOM      5  C   UNL     1     -48.916  28.838  24.606  1.00  0.00     0.126 A 
ATOM      6  C   UNL     1     -47.865  28.743  23.706  1.00  0.00    -0.019 A 
ATOM      7  N   UNL     1     -49.143  29.948  25.334  1.00  0.00    -0.231 NA
ATOM      8  C   UNL     1     -46.998  29.821  23.564  1.00  0.00    -0.049 A 
ATOM      9  H   UNL     1     -47.728  27.853  23.102  1.00  0.00     0.066 H 
ATOM     10  C   UNL     1     -48.307  30.994  25.198  1.00  0.00     0.073 A 
ATOM     11  C   UNL     1     -47.207  30.978  24.320  1.00  0.00     0.000 A 
ATOM     12  H   UNL     1     -46.175  29.756  22.859  1.00  0.00     0.063 H 
ATOM     13  C   UNL     1     -48.532  32.143  25.944  1.00  0.00    -0.029 A 
ATOM     14  C   UNL     1     -46.366  32.098  24.213  1.00  0.00    -0.052 A 
ATOM     15  H   UNL     1     -49.387  32.153  26.616  1.00  0.00     0.065 H 
ATOM     16  C   UNL     1     -46.619  33.242  24.969  1.00  0.00    -0.055 A 
ATOM     17  H   UNL     1     -45.516  32.088  23.534  1.00  0.00     0.063 H 
ATOM     18  H   UNL     1     -45.964  34.106  24.869  1.00  0.00     0.063 H 
BRANCH   5  19
ATOM     19  N   UNL     1     -49.838  27.807  24.789  1.00  0.00    -0.373 N 
ATOM     20  H   UNL     1     -50.738  28.283  24.839  1.00  0.00     0.161 HD
BRANCH  19  21
ATOM     21  C   UNL     1     -49.600  26.989  25.965  1.00  0.00     0.005 C 
ATOM     22  H   UNL     1     -50.333  26.178  26.045  1.00  0.00     0.045 H 
ATOM     23  H   UNL     1     -49.614  27.583  26.884  1.00  0.00     0.045 H 
ATOM     24  H   UNL     1     -48.607  26.534  25.888  1.00  0.00     0.045 H 
ENDBRANCH  19  21
ENDBRANCH   5  19
ENDBRANCH   1   4
BRANCH   1  25
ATOM     25  O   UNL     1     -47.088  35.574  26.452  1.00  0.00    -0.487 OA
BRANCH  25  26
ATOM     26  C   UNL     1     -46.569  36.203  27.548  1.00  0.00     0.140 A 
ATOM     27  C   UNL     1     -46.894  35.646  28.778  1.00  0.00     0.069 A 
ATOM     28  C   UNL     1     -45.736  37.322  27.550  1.00  0.00     0.007 A 
ATOM     29  N   UNL     1     -46.473  36.127  29.969  1.00  0.00    -0.259 NA
ATOM     30  H   UNL     1     -47.530  34.767  28.837  1.00  0.00     0.088 H 
ATOM     31  C   UNL     1     -45.261  37.850  28.759  1.00  0.00     0.069 A 
ATOM     32  H   UNL     1     -45.463  37.781  26.612  1.00  0.00     0.069 H 
ATOM     33  C   UNL     1     -45.667  37.216  29.931  1.00  0.00     0.051 A 
ATOM     34  H   UNL     1     -45.343  37.529  30.918  1.00  0.00     0.086 H 
BRANCH  31  35
ATOM     35  N   UNL     1     -44.393  38.988  28.804  1.00  0.00    -0.299 N 
ATOM     36  C   UNL     1     -43.463  39.242  29.804  1.00  0.00     0.012 A 
ATOM     37  C   UNL     1     -44.304  40.039  27.886  1.00  0.00     0.150 A 
ATOM     38  C   UNL     1     -42.807  40.420  29.536  1.00  0.00    -0.031 A 
ATOM     39  H   UNL     1     -43.341  38.582  30.652  1.00  0.00     0.082 H 
ATOM     40  C   UNL     1     -43.329  40.931  28.325  1.00  0.00     0.061 A 
ATOM     41  N   UNL     1     -45.005  40.178  26.742  1.00  0.00    -0.218 NA
ATOM     42  H   UNL     1     -42.028  40.863  30.144  1.00  0.00     0.065 H 
ATOM     43  C   UNL     1     -43.081  42.058  27.528  1.00  0.00     0.136 A 
ATOM     44  C   UNL     1     -44.672  41.279  26.053  1.00  0.00     0.120 A 
ATOM     45  N   UNL     1     -43.771  42.219  26.388  1.00  0.00    -0.219 NA
ATOM     46  H   UNL     1     -45.193  41.434  25.113  1.00  0.00     0.106 H 
BRANCH  43  47
ATOM     47  N   UNL     1     -42.155  43.039  27.853  1.00  0.00    -0.383 N 
ATOM     48  H   UNL     1     -42.095  43.803  27.196  1.00  0.00     0.158 HD
ATOM     49  H   UNL     1     -41.277  42.613  28.131  1.00  0.00     0.158 HD
ENDBRANCH  43  47
ENDBRANCH  31  35
ENDBRANCH  25  26
ENDBRANCH   1  25
TORSDOF 7
ENDMDL
MODEL 4
REMARK VINA RESULT:      -9.5      1.878     10.697
REMARK SMILES CNc1ccc2ccc(COc3cncc(-n4ccc5c(N)ncnc54)c3)cc2n1
REMARK SMILES IDX 10 1 9 4 3 5 4 6 30 7 5 8 29 10 6 11 28 13 7 14 8 16 2 19
REMARK SMILES IDX 1 21 11 25 12 26 13 27 27 28 14 29 16 31 15 33 17 35 18 36
REMARK SMILES IDX 26 37 19 38 20 40 25 41 21 43 24 44 23 45 22 47
REMARK H PARENT 10 2 10 3 4 9 5 12 28 15 7 17 8 18 2 20 1 22 1 23 1 24 13 30
REMARK H PARENT 27 32 15 34 18 39 19 42 24 46 22 48 22 49
REMARK Flexibility Score: inf
ROOT
ATOM      1  C   UNL     1     -46.351  37.408  27.454  1.00  0.00     0.113 C 
ATOM      2  H   UNL     1     -46.730  37.882  26.540  1.00  0.00     0.076 H 
ATOM      3  H   UNL     1     -47.219  37.284  28.113  1.00  0.00     0.076 H 
ENDROOT
BRANCH   1   4
ATOM      4  C   UNL     1     -45.307  38.327  28.042  1.00  0.00    -0.009 A 
ATOM      5  C   UNL     1     -42.557  42.181  27.501  1.00  0.00     0.126 A 
ATOM      6  C   UNL     1     -42.021  42.045  28.773  1.00  0.00    -0.019 A 
ATOM      7  N   UNL     1     -43.478  41.328  27.014  1.00  0.00    -0.231 NA
ATOM      8  C   UNL     1     -42.428  40.978  29.568  1.00  0.00    -0.049 A 
ATOM      9  H   UNL     1     -41.311  42.768  29.158  1.00  0.00     0.066 H 
ATOM     10  C   UNL     1     -43.876  40.295  27.780  1.00  0.00     0.073 A 
ATOM     11  C   UNL     1     -43.373  40.074  29.076  1.00  0.00     0.000 A 
ATOM     12  H   UNL     1     -42.016  40.867  30.566  1.00  0.00     0.063 H 
ATOM     13  C   UNL     1     -44.825  39.411  27.286  1.00  0.00    -0.029 A 
ATOM     14  C   UNL     1     -43.823  38.982  29.836  1.00  0.00    -0.052 A 
ATOM     15  H   UNL     1     -45.216  39.590  26.287  1.00  0.00     0.065 H 
ATOM     16  C   UNL     1     -44.782  38.112  29.318  1.00  0.00    -0.055 A 
ATOM     17  H   UNL     1     -43.436  38.809  30.838  1.00  0.00     0.063 H 
ATOM     18  H   UNL     1     -45.128  37.275  29.923  1.00  0.00     0.063 H 
BRANCH   5  19
ATOM     19  N   UNL     1     -42.214  43.234  26.655  1.00  0.00    -0.373 N 
ATOM     20  H   UNL     1     -42.474  44.070  27.177  1.00  0.00     0.161 HD
BRANCH  19  21
ATOM     21  C   UNL     1     -42.858  43.196  25.354  1.00  0.00     0.005 C 
ATOM     22  H   UNL     1     -43.057  44.205  24.974  1.00  0.00     0.045 H 
ATOM     23  H   UNL     1     -43.792  42.626  25.379  1.00  0.00     0.045 H 
ATOM     24  H   UNL     1     -42.193  42.698  24.641  1.00  0.00     0.045 H 
ENDBRANCH  19  21
ENDBRANCH   5  19
ENDBRANCH   1   4
BRANCH   1  25
ATOM     25  O   UNL     1     -45.824  36.134  27.066  1.00  0.00    -0.487 OA
BRANCH  25  26
ATOM     26  C   UNL     1     -46.702  35.154  26.701  1.00  0.00     0.140 A 
ATOM     27  C   UNL     1     -48.001  35.298  27.168  1.00  0.00     0.069 A 
ATOM     28  C   UNL     1     -46.429  34.049  25.894  1.00  0.00     0.007 A 
ATOM     29  N   UNL     1     -49.007  34.432  26.908  1.00  0.00    -0.259 NA
ATOM     30  H   UNL     1     -48.275  36.145  27.791  1.00  0.00     0.088 H 
ATOM     31  C   UNL     1     -47.441  33.130  25.584  1.00  0.00     0.069 A 
ATOM     32  H   UNL     1     -45.428  33.905  25.514  1.00  0.00     0.069 H 
ATOM     33  C   UNL     1     -48.703  33.371  26.123  1.00  0.00     0.051 A 
ATOM     34  H   UNL     1     -49.561  32.735  25.931  1.00  0.00     0.086 H 
BRANCH  31  35
ATOM     35  N   UNL     1     -47.206  31.991  24.748  1.00  0.00    -0.299 N 
ATOM     36  C   UNL     1     -46.337  31.962  23.666  1.00  0.00     0.012 A 
ATOM     37  C   UNL     1     -47.780  30.719  24.846  1.00  0.00     0.150 A 
ATOM     38  C   UNL     1     -46.361  30.715  23.087  1.00  0.00    -0.031 A 
ATOM     39  H   UNL     1     -45.773  32.834  23.362  1.00  0.00     0.082 H 
ATOM     40  C   UNL     1     -47.268  29.921  23.827  1.00  0.00     0.061 A 
ATOM     41  N   UNL     1     -48.658  30.296  25.779  1.00  0.00    -0.218 NA
ATOM     42  H   UNL     1     -45.780  30.405  22.227  1.00  0.00     0.065 H 
ATOM     43  C   UNL     1     -47.717  28.594  23.760  1.00  0.00     0.136 A 
ATOM     44  C   UNL     1     -49.002  29.008  25.629  1.00  0.00     0.120 A 
ATOM     45  N   UNL     1     -48.596  28.153  24.675  1.00  0.00    -0.219 NA
ATOM     46  H   UNL     1     -49.695  28.607  26.363  1.00  0.00     0.106 H 
BRANCH  43  47
ATOM     47  N   UNL     1     -47.309  27.694  22.786  1.00  0.00    -0.383 N 
ATOM     48  H   UNL     1     -46.339  27.769  22.516  1.00  0.00     0.158 HD
ATOM     49  H   UNL     1     -47.986  27.666  22.031  1.00  0.00     0.158 HD
ENDBRANCH  43  47
ENDBRANCH  31  35
ENDBRANCH  25  26
ENDBRANCH   1  25
TORSDOF 7
ENDMDL
MODEL 5
REMARK VINA RESULT:      -9.5      2.138      3.069
REMARK SMILES CNc1ccc2ccc(COc3cncc(-n4ccc5c(N)ncnc54)c3)cc2n1
REMARK SMILES IDX 10 1 9 4 3 5 4 6 30 7 5 8 29 10 6 11 28 13 7 14 8 16 2 19
REMARK SMILES IDX 1 21 11 25 12 26 13 27 27 28 14 29 16 31 15 33 17 35 18 36
REMARK SMILES IDX 26 37 19 38 20 40 25 41 21 43 24 44 23 45 22 47
REMARK H PARENT 10 2 10 3 4 9 5 12 28 15 7 17 8 18 2 20 1 22 1 23 1 24 13 30
REMARK H PARENT 27 32 15 34 18 39 19 42 24 46 22 48 22 49
REMARK Flexibility Score: inf
ROOT
ATOM      1  C   UNL     1     -48.695  35.807  27.427  1.00  0.00     0.113 C 
ATOM      2  H   UNL     1     -49.749  35.561  27.604  1.00  0.00     0.076 H 
ATOM      3  H   UNL     1     -48.693  36.779  26.919  1.00  0.00     0.076 H 
ENDROOT
BRANCH   1   4
ATOM      4  C   UNL     1     -48.111  34.707  26.572  1.00  0.00    -0.009 A 
ATOM      5  C   UNL     1     -48.662  30.409  24.591  1.00  0.00     0.126 A 
ATOM      6  C   UNL     1     -47.418  30.468  23.982  1.00  0.00    -0.019 A 
ATOM      7  N   UNL     1     -49.138  31.409  25.356  1.00  0.00    -0.231 NA
ATOM      8  C   UNL     1     -46.618  31.588  24.187  1.00  0.00    -0.049 A 
ATOM      9  H   UNL     1     -47.074  29.668  23.337  1.00  0.00     0.066 H 
ATOM     10  C   UNL     1     -48.368  32.495  25.556  1.00  0.00     0.073 A 
ATOM     11  C   UNL     1     -47.086  32.632  24.990  1.00  0.00     0.000 A 
ATOM     12  H   UNL     1     -45.643  31.644  23.711  1.00  0.00     0.063 H 
ATOM     13  C   UNL     1     -48.848  33.532  26.344  1.00  0.00    -0.029 A 
ATOM     14  C   UNL     1     -46.324  33.787  25.227  1.00  0.00    -0.052 A 
ATOM     15  H   UNL     1     -49.842  33.425  26.774  1.00  0.00     0.065 H 
ATOM     16  C   UNL     1     -46.833  34.817  26.017  1.00  0.00    -0.055 A 
ATOM     17  H   UNL     1     -45.333  33.895  24.789  1.00  0.00     0.063 H 
ATOM     18  H   UNL     1     -46.235  35.710  26.184  1.00  0.00     0.063 H 
BRANCH   5  19
ATOM     19  N   UNL     1     -49.528  29.329  24.416  1.00  0.00    -0.373 N 
ATOM     20  H   UNL     1     -49.280  28.687  25.168  1.00  0.00     0.161 HD
BRANCH  19  21
ATOM     21  C   UNL     1     -49.437  28.689  23.115  1.00  0.00     0.005 C 
ATOM     22  H   UNL     1     -49.745  27.638  23.162  1.00  0.00     0.045 H 
ATOM     23  H   UNL     1     -48.426  28.754  22.700  1.00  0.00     0.045 H 
ATOM     24  H   UNL     1     -50.108  29.202  22.419  1.00  0.00     0.045 H 
ENDBRANCH  19  21
ENDBRANCH   5  19
ENDBRANCH   1   4
BRANCH   1  25
ATOM     25  O   UNL     1     -48.076  35.905  28.714  1.00  0.00    -0.487 OA
BRANCH  25  26
ATOM     26  C   UNL     1     -47.054  36.798  28.874  1.00  0.00     0.140 A 
ATOM     27  C   UNL     1     -46.220  36.578  29.961  1.00  0.00     0.069 A 
ATOM     28  C   UNL     1     -46.757  37.881  28.046  1.00  0.00     0.007 A 
ATOM     29  N   UNL     1     -45.157  37.352  30.278  1.00  0.00    -0.259 NA
ATOM     30  H   UNL     1     -46.396  35.743  30.634  1.00  0.00     0.088 H 
ATOM     31  C   UNL     1     -45.658  38.705  28.324  1.00  0.00     0.069 A 
ATOM     32  H   UNL     1     -47.386  38.082  27.191  1.00  0.00     0.069 H 
ATOM     33  C   UNL     1     -44.902  38.395  29.452  1.00  0.00     0.051 A 
ATOM     34  H   UNL     1     -44.020  38.954  29.747  1.00  0.00     0.086 H 
BRANCH  31  35
ATOM     35  N   UNL     1     -45.311  39.819  27.492  1.00  0.00    -0.299 N 
ATOM     36  C   UNL     1     -44.044  40.065  26.979  1.00  0.00     0.012 A 
ATOM     37  C   UNL     1     -46.144  40.847  27.040  1.00  0.00     0.150 A 
ATOM     38  C   UNL     1     -44.066  41.219  26.230  1.00  0.00    -0.031 A 
ATOM     39  H   UNL     1     -43.204  39.420  27.195  1.00  0.00     0.082 H 
ATOM     40  C   UNL     1     -45.389  41.719  26.260  1.00  0.00     0.061 A 
ATOM     41  N   UNL     1     -47.465  40.982  27.274  1.00  0.00    -0.218 NA
ATOM     42  H   UNL     1     -43.221  41.651  25.709  1.00  0.00     0.065 H 
ATOM     43  C   UNL     1     -46.052  42.821  25.701  1.00  0.00     0.136 A 
ATOM     44  C   UNL     1     -47.996  42.059  26.676  1.00  0.00     0.120 A 
ATOM     45  N   UNL     1     -47.366  42.979  25.926  1.00  0.00    -0.219 NA
ATOM     46  H   UNL     1     -49.063  42.210  26.816  1.00  0.00     0.106 H 
BRANCH  43  47
ATOM     47  N   UNL     1     -45.421  43.782  24.923  1.00  0.00    -0.383 N 
ATOM     48  H   UNL     1     -44.730  44.336  25.407  1.00  0.00     0.158 HD
ATOM     49  H   UNL     1     -46.106  44.293  24.375  1.00  0.00     0.158 HD
ENDBRANCH  43  47
ENDBRANCH  31  35
ENDBRANCH  25  26
ENDBRANCH   1  25
TORSDOF 7
ENDMDL
MODEL 6
REMARK VINA RESULT:      -9.4      3.400     11.529
REMARK SMILES CNc1ccc2ccc(COc3cncc(-n4ccc5c(N)ncnc54)c3)cc2n1
REMARK SMILES IDX 10 1 9 4 3 5 4 6 30 7 5 8 29 10 6 11 28 13 7 14 8 16 2 19
REMARK SMILES IDX 1 21 11 25 12 26 13 27 27 28 14 29 16 31 15 33 17 35 18 36
REMARK SMILES IDX 26 37 19 38 20 40 25 41 21 43 24 44 23 45 22 47
REMARK H PARENT 10 2 10 3 4 9 5 12 28 15 7 17 8 18 2 20 1 22 1 23 1 24 13 30
REMARK H PARENT 27 32 15 34 18 39 19 42 24 46 22 48 22 49
REMARK Flexibility Score: inf
ROOT
ATOM      1  C   UNL     1     -47.701  33.277  25.259  1.00  0.00     0.113 C 
ATOM      2  H   UNL     1     -48.372  33.885  24.639  1.00  0.00     0.076 H 
ATOM      3  H   UNL     1     -48.339  32.539  25.760  1.00  0.00     0.076 H 
ENDROOT
BRANCH   1   4
ATOM      4  C   UNL     1     -47.017  34.207  26.234  1.00  0.00    -0.009 A 
ATOM      5  C   UNL     1     -46.045  38.686  27.535  1.00  0.00     0.126 A 
ATOM      6  C   UNL     1     -45.332  38.266  28.649  1.00  0.00    -0.019 A 
ATOM      7  N   UNL     1     -46.627  37.819  26.685  1.00  0.00    -0.231 NA
ATOM      8  C   UNL     1     -45.190  36.903  28.886  1.00  0.00    -0.049 A 
ATOM      9  H   UNL     1     -44.907  38.984  29.341  1.00  0.00     0.066 H 
ATOM     10  C   UNL     1     -46.494  36.499  26.912  1.00  0.00     0.073 A 
ATOM     11  C   UNL     1     -45.776  35.986  28.009  1.00  0.00     0.000 A 
ATOM     12  H   UNL     1     -44.637  36.566  29.758  1.00  0.00     0.063 H 
ATOM     13  C   UNL     1     -47.091  35.598  26.042  1.00  0.00    -0.029 A 
ATOM     14  C   UNL     1     -45.669  34.600  28.203  1.00  0.00    -0.052 A 
ATOM     15  H   UNL     1     -47.651  35.999  25.200  1.00  0.00     0.065 H 
ATOM     16  C   UNL     1     -46.284  33.715  27.316  1.00  0.00    -0.055 A 
ATOM     17  H   UNL     1     -45.115  34.200  29.050  1.00  0.00     0.063 H 
ATOM     18  H   UNL     1     -46.201  32.643  27.485  1.00  0.00     0.063 H 
BRANCH   5  19
ATOM     19  N   UNL     1     -46.245  40.034  27.243  1.00  0.00    -0.373 N 
ATOM     20  H   UNL     1     -45.791  40.527  28.010  1.00  0.00     0.161 HD
BRANCH  19  21
ATOM     21  C   UNL     1     -47.640  40.421  27.112  1.00  0.00     0.005 C 
ATOM     22  H   UNL     1     -47.767  41.222  26.375  1.00  0.00     0.045 H 
ATOM     23  H   UNL     1     -48.065  40.736  28.070  1.00  0.00     0.045 H 
ATOM     24  H   UNL     1     -48.218  39.557  26.768  1.00  0.00     0.045 H 
ENDBRANCH  19  21
ENDBRANCH   5  19
ENDBRANCH   1   4
BRANCH   1  25
ATOM     25  O   UNL     1     -46.788  32.633  24.363  1.00  0.00    -0.487 OA
BRANCH  25  26
ATOM     26  C   UNL     1     -46.955  31.299  24.118  1.00  0.00     0.140 A 
ATOM     27  C   UNL     1     -46.268  30.792  23.024  1.00  0.00     0.069 A 
ATOM     28  C   UNL     1     -47.723  30.405  24.865  1.00  0.00     0.007 A 
ATOM     29  N   UNL     1     -46.308  29.500  22.629  1.00  0.00    -0.259 NA
ATOM     30  H   UNL     1     -45.646  31.440  22.412  1.00  0.00     0.088 H 
ATOM     31  C   UNL     1     -47.787  29.052  24.503  1.00  0.00     0.069 A 
ATOM     32  H   UNL     1     -48.272  30.765  25.722  1.00  0.00     0.069 H 
ATOM     33  C   UNL     1     -47.066  28.662  23.377  1.00  0.00     0.051 A 
ATOM     34  H   UNL     1     -47.029  27.638  23.021  1.00  0.00     0.086 H 
BRANCH  31  35
ATOM     35  N   UNL     1     -48.551  28.099  25.251  1.00  0.00    -0.299 N 
ATOM     36  C   UNL     1     -48.063  27.336  26.304  1.00  0.00     0.012 A 
ATOM     37  C   UNL     1     -49.895  27.753  25.084  1.00  0.00     0.150 A 
ATOM     38  C   UNL     1     -49.061  26.524  26.787  1.00  0.00    -0.031 A 
ATOM     39  H   UNL     1     -47.033  27.402  26.629  1.00  0.00     0.082 H 
ATOM     40  C   UNL     1     -50.224  26.781  26.025  1.00  0.00     0.061 A 
ATOM     41  N   UNL     1     -50.762  28.276  24.192  1.00  0.00    -0.218 NA
ATOM     42  H   UNL     1     -48.967  25.825  27.609  1.00  0.00     0.065 H 
ATOM     43  C   UNL     1     -51.544  26.306  26.026  1.00  0.00     0.136 A 
ATOM     44  C   UNL     1     -51.997  27.763  24.297  1.00  0.00     0.120 A 
ATOM     45  N   UNL     1     -52.422  26.809  25.144  1.00  0.00    -0.219 NA
ATOM     46  H   UNL     1     -52.742  28.160  23.615  1.00  0.00     0.106 H 
BRANCH  43  47
ATOM     47  N   UNL     1     -52.005  25.325  26.891  1.00  0.00    -0.383 N 
ATOM     48  H   UNL     1     -51.525  25.279  27.779  1.00  0.00     0.158 HD
ATOM     49  H   UNL     1     -52.120  24.447  26.396  1.00  0.00     0.158 HD
ENDBRANCH  43  47
ENDBRANCH  31  35
ENDBRANCH  25  26
ENDBRANCH   1  25
TORSDOF 7
ENDMDL
MODEL 7
REMARK VINA RESULT:      -9.4      1.854      2.390
REMARK SMILES CNc1ccc2ccc(COc3cncc(-n4ccc5c(N)ncnc54)c3)cc2n1
REMARK SMILES IDX 10 1 9 4 3 5 4 6 30 7 5 8 29 10 6 11 28 13 7 14 8 16 2 19
REMARK SMILES IDX 1 21 11 25 12 26 13 27 27 28 14 29 16 31 15 33 17 35 18 36
REMARK SMILES IDX 26 37 19 38 20 40 25 41 21 43 24 44 23 45 22 47
REMARK H PARENT 10 2 10 3 4 9 5 12 28 15 7 17 8 18 2 20 1 22 1 23 1 24 13 30
REMARK H PARENT 27 32 15 34 18 39 19 42 24 46 22 48 22 49
REMARK Flexibility Score: inf
ROOT
ATOM      1  C   UNL     1     -48.481  34.530  26.726  1.00  0.00     0.113 C 
ATOM      2  H   UNL     1     -49.206  34.127  27.444  1.00  0.00     0.076 H 
ATOM      3  H   UNL     1     -49.026  35.272  26.130  1.00  0.00     0.076 H 
ENDROOT
BRANCH   1   4
ATOM      4  C   UNL     1     -47.979  33.375  25.891  1.00  0.00    -0.009 A 
ATOM      5  C   UNL     1     -48.647  28.914  24.358  1.00  0.00     0.126 A 
ATOM      6  C   UNL     1     -47.496  28.948  23.584  1.00  0.00    -0.019 A 
ATOM      7  N   UNL     1     -49.049  29.964  25.097  1.00  0.00    -0.231 NA
ATOM      8  C   UNL     1     -46.714  30.099  23.588  1.00  0.00    -0.049 A 
ATOM      9  H   UNL     1     -47.216  28.104  22.965  1.00  0.00     0.066 H 
ATOM     10  C   UNL     1     -48.295  31.080  25.102  1.00  0.00     0.073 A 
ATOM     11  C   UNL     1     -47.106  31.196  24.359  1.00  0.00     0.000 A 
ATOM     12  H   UNL     1     -45.813  30.135  22.981  1.00  0.00     0.063 H 
ATOM     13  C   UNL     1     -48.701  32.169  25.861  1.00  0.00    -0.029 A 
ATOM     14  C   UNL     1     -46.358  32.384  24.396  1.00  0.00    -0.052 A 
ATOM     15  H   UNL     1     -49.625  32.077  26.429  1.00  0.00     0.065 H 
ATOM     16  C   UNL     1     -46.791  33.466  25.162  1.00  0.00    -0.055 A 
ATOM     17  H   UNL     1     -45.438  32.476  23.821  1.00  0.00     0.063 H 
ATOM     18  H   UNL     1     -46.206  34.383  25.174  1.00  0.00     0.063 H 
BRANCH   5  19
ATOM     19  N   UNL     1     -49.491  27.804  24.390  1.00  0.00    -0.373 N 
ATOM     20  H   UNL     1     -50.361  28.140  23.978  1.00  0.00     0.161 HD
BRANCH  19  21
ATOM     21  C   UNL     1     -49.707  27.251  25.716  1.00  0.00     0.005 C 
ATOM     22  H   UNL     1     -48.770  27.180  26.279  1.00  0.00     0.045 H 
ATOM     23  H   UNL     1     -50.181  26.265  25.672  1.00  0.00     0.045 H 
ATOM     24  H   UNL     1     -50.381  27.911  26.272  1.00  0.00     0.045 H 
ENDBRANCH  19  21
ENDBRANCH   5  19
ENDBRANCH   1   4
BRANCH   1  25
ATOM     25  O   UNL     1     -47.448  35.157  27.495  1.00  0.00    -0.487 OA
BRANCH  25  26
ATOM     26  C   UNL     1     -47.450  36.520  27.591  1.00  0.00     0.140 A 
ATOM     27  C   UNL     1     -48.659  37.102  27.947  1.00  0.00     0.069 A 
ATOM     28  C   UNL     1     -46.362  37.370  27.392  1.00  0.00     0.007 A 
ATOM     29  N   UNL     1     -48.853  38.432  28.093  1.00  0.00    -0.259 NA
ATOM     30  H   UNL     1     -49.538  36.488  28.125  1.00  0.00     0.088 H 
ATOM     31  C   UNL     1     -46.508  38.755  27.546  1.00  0.00     0.069 A 
ATOM     32  H   UNL     1     -45.406  36.952  27.114  1.00  0.00     0.069 H 
ATOM     33  C   UNL     1     -47.774  39.226  27.890  1.00  0.00     0.051 A 
ATOM     34  H   UNL     1     -47.993  40.276  28.053  1.00  0.00     0.086 H 
BRANCH  31  35
ATOM     35  N   UNL     1     -45.414  39.662  27.365  1.00  0.00    -0.299 N 
ATOM     36  C   UNL     1     -45.251  40.506  26.274  1.00  0.00     0.012 A 
ATOM     37  C   UNL     1     -44.326  39.878  28.216  1.00  0.00     0.150 A 
ATOM     38  C   UNL     1     -44.092  41.232  26.422  1.00  0.00    -0.031 A 
ATOM     39  H   UNL     1     -45.955  40.523  25.454  1.00  0.00     0.082 H 
ATOM     40  C   UNL     1     -43.501  40.844  27.647  1.00  0.00     0.061 A 
ATOM     41  N   UNL     1     -44.102  39.289  29.410  1.00  0.00    -0.218 NA
ATOM     42  H   UNL     1     -43.714  41.970  25.725  1.00  0.00     0.065 H 
ATOM     43  C   UNL     1     -42.350  41.210  28.360  1.00  0.00     0.136 A 
ATOM     44  C   UNL     1     -42.985  39.729  30.009  1.00  0.00     0.120 A 
ATOM     45  N   UNL     1     -42.104  40.633  29.548  1.00  0.00    -0.219 NA
ATOM     46  H   UNL     1     -42.762  39.302  30.983  1.00  0.00     0.106 H 
BRANCH  43  47
ATOM     47  N   UNL     1     -41.429  42.141  27.904  1.00  0.00    -0.383 N 
ATOM     48  H   UNL     1     -40.473  41.815  27.870  1.00  0.00     0.158 HD
ATOM     49  H   UNL     1     -41.583  43.036  28.356  1.00  0.00     0.158 HD
ENDBRANCH  43  47
ENDBRANCH  31  35
ENDBRANCH  25  26
ENDBRANCH   1  25
TORSDOF 7
ENDMDL
