MODEL 1
REMARK VINA RESULT:      -9.2      0.000      0.000
REMARK SMILES CCc1cc(NCCCN(C)C)c2ccc(CCc3cncc(-n4ccc5c(N)ncnc54)c3)cc2n1
REMARK SMILES IDX 3 1 4 2 5 3 13 4 14 5 15 6 16 7 35 8 36 9 37 10 2 15 1 18
REMARK SMILES IDX 6 22 7 24 8 27 9 30 10 33 11 34 12 38 17 42 18 45 19 48
REMARK SMILES IDX 20 49 34 50 21 51 23 53 22 55 24 57 25 58 33 59 26 60 27 62
REMARK SMILES IDX 32 63 28 65 31 66 30 67 29 69
REMARK H PARENT 4 11 14 12 15 13 35 14 2 16 2 17 1 19 1 20 1 21 6 23 7 25 7 26
REMARK H PARENT 8 28 8 29 9 31 9 32 11 35 11 36 11 37 12 39 12 40 12 41 17 43
REMARK H PARENT 17 44 18 46 18 47 20 52 34 54 22 56 25 61 26 64 31 68 29 70
REMARK H PARENT 29 71
REMARK Flexibility Score: inf
ROOT
ATOM      1  C   UNL     1     -46.264  30.283  23.034  1.00  0.00     0.043 A 
ATOM      2  C   UNL     1     -47.342  29.519  23.464  1.00  0.00    -0.017 A 
ATOM      3  C   UNL     1     -48.258  30.051  24.374  1.00  0.00     0.045 A 
ATOM      4  C   UNL     1     -47.983  31.346  24.907  1.00  0.00     0.023 A 
ATOM      5  C   UNL     1     -48.760  31.977  25.912  1.00  0.00    -0.050 A 
ATOM      6  C   UNL     1     -48.461  33.260  26.373  1.00  0.00    -0.058 A 
ATOM      7  C   UNL     1     -47.374  33.952  25.846  1.00  0.00    -0.045 A 
ATOM      8  C   UNL     1     -46.593  33.325  24.867  1.00  0.00    -0.032 A 
ATOM      9  C   UNL     1     -46.866  32.046  24.398  1.00  0.00     0.073 A 
ATOM     10  N   UNL     1     -46.038  31.536  23.476  1.00  0.00    -0.253 NA
ATOM     11  H   UNL     1     -47.458  28.519  23.063  1.00  0.00     0.066 H 
ATOM     12  H   UNL     1     -49.607  31.469  26.360  1.00  0.00     0.063 H 
ATOM     13  H   UNL     1     -49.090  33.713  27.137  1.00  0.00     0.063 H 
ATOM     14  H   UNL     1     -45.733  33.846  24.448  1.00  0.00     0.065 H 
ENDROOT
BRANCH   1  15
ATOM     15  C   UNL     1     -45.302  29.739  22.010  1.00  0.00    -0.013 C 
ATOM     16  H   UNL     1     -44.588  30.519  21.718  1.00  0.00     0.033 H 
ATOM     17  H   UNL     1     -45.856  29.469  21.103  1.00  0.00     0.033 H 
BRANCH  15  18
ATOM     18  C   UNL     1     -44.561  28.518  22.532  1.00  0.00    -0.060 C 
ATOM     19  H   UNL     1     -43.985  28.759  23.432  1.00  0.00     0.023 H 
ATOM     20  H   UNL     1     -43.864  28.126  21.783  1.00  0.00     0.023 H 
ATOM     21  H   UNL     1     -45.270  27.724  22.784  1.00  0.00     0.023 H 
ENDBRANCH  15  18
ENDBRANCH   1  15
BRANCH   3  22
ATOM     22  N   UNL     1     -49.351  29.306  24.848  1.00  0.00    -0.384 N 
ATOM     23  H   UNL     1     -50.210  29.847  24.838  1.00  0.00     0.160 HD
BRANCH  22  24
ATOM     24  C   UNL     1     -49.569  27.905  24.496  1.00  0.00     0.016 C 
ATOM     25  H   UNL     1     -50.529  27.781  23.982  1.00  0.00     0.049 H 
ATOM     26  H   UNL     1     -48.806  27.625  23.759  1.00  0.00     0.049 H 
BRANCH  24  27
ATOM     27  C   UNL     1     -49.478  26.951  25.691  1.00  0.00    -0.023 C 
ATOM     28  H   UNL     1     -49.350  25.941  25.286  1.00  0.00     0.030 H 
ATOM     29  H   UNL     1     -50.416  26.947  26.257  1.00  0.00     0.030 H 
BRANCH  27  30
ATOM     30  C   UNL     1     -48.315  27.291  26.632  1.00  0.00    -0.001 C 
ATOM     31  H   UNL     1     -48.720  27.354  27.649  1.00  0.00     0.043 H 
ATOM     32  H   UNL     1     -47.905  28.281  26.392  1.00  0.00     0.043 H 
BRANCH  30  33
ATOM     33  N   UNL     1     -47.252  26.268  26.613  1.00  0.00    -0.309 NA
BRANCH  33  34
ATOM     34  C   UNL     1     -47.789  24.911  26.738  1.00  0.00    -0.014 C 
ATOM     35  H   UNL     1     -48.779  24.900  27.210  1.00  0.00     0.039 H 
ATOM     36  H   UNL     1     -47.875  24.440  25.752  1.00  0.00     0.039 H 
ATOM     37  H   UNL     1     -47.121  24.269  27.318  1.00  0.00     0.039 H 
ENDBRANCH  33  34
BRANCH  33  38
ATOM     38  C   UNL     1     -46.473  26.375  25.376  1.00  0.00    -0.014 C 
ATOM     39  H   UNL     1     -45.459  26.732  25.587  1.00  0.00     0.039 H 
ATOM     40  H   UNL     1     -46.925  27.108  24.697  1.00  0.00     0.039 H 
ATOM     41  H   UNL     1     -46.401  25.416  24.850  1.00  0.00     0.039 H 
ENDBRANCH  33  38
ENDBRANCH  30  33
ENDBRANCH  27  30
ENDBRANCH  24  27
ENDBRANCH  22  24
ENDBRANCH   3  22
BRANCH   7  42
ATOM     42  C   UNL     1     -47.056  35.356  26.298  1.00  0.00    -0.024 C 
ATOM     43  H   UNL     1     -47.010  36.000  25.410  1.00  0.00     0.032 H 
ATOM     44  H   UNL     1     -46.051  35.387  26.739  1.00  0.00     0.032 H 
BRANCH  42  45
ATOM     45  C   UNL     1     -48.095  35.926  27.272  1.00  0.00    -0.022 C 
ATOM     46  H   UNL     1     -49.098  35.744  26.865  1.00  0.00     0.032 H 
ATOM     47  H   UNL     1     -48.063  35.390  28.229  1.00  0.00     0.032 H 
BRANCH  45  48
ATOM     48  C   UNL     1     -47.945  37.406  27.510  1.00  0.00    -0.027 A 
ATOM     49  C   UNL     1     -48.985  38.160  28.038  1.00  0.00     0.030 A 
ATOM     50  C   UNL     1     -46.740  38.066  27.228  1.00  0.00    -0.032 A 
ATOM     51  N   UNL     1     -48.902  39.484  28.283  1.00  0.00    -0.262 NA
ATOM     52  H   UNL     1     -49.940  37.707  28.293  1.00  0.00     0.084 H 
ATOM     53  C   UNL     1     -46.609  39.437  27.469  1.00  0.00     0.066 A 
ATOM     54  H   UNL     1     -45.933  37.478  26.805  1.00  0.00     0.065 H 
ATOM     55  C   UNL     1     -47.723  40.089  27.993  1.00  0.00     0.051 A 
ATOM     56  H   UNL     1     -47.734  41.145  28.234  1.00  0.00     0.086 H 
BRANCH  53  57
ATOM     57  N   UNL     1     -45.399  40.153  27.195  1.00  0.00    -0.300 N 
ATOM     58  C   UNL     1     -45.159  40.905  26.051  1.00  0.00     0.012 A 
ATOM     59  C   UNL     1     -44.252  40.243  27.991  1.00  0.00     0.150 A 
ATOM     60  C   UNL     1     -43.898  41.451  26.112  1.00  0.00    -0.031 A 
ATOM     61  H   UNL     1     -45.889  40.991  25.259  1.00  0.00     0.082 H 
ATOM     62  C   UNL     1     -43.317  41.038  27.332  1.00  0.00     0.061 A 
ATOM     63  N   UNL     1     -44.061  39.688  29.206  1.00  0.00    -0.218 NA
ATOM     64  H   UNL     1     -43.448  42.083  25.358  1.00  0.00     0.065 H 
ATOM     65  C   UNL     1     -42.088  41.254  27.974  1.00  0.00     0.136 A 
ATOM     66  C   UNL     1     -42.856  39.968  29.722  1.00  0.00     0.120 A 
ATOM     67  N   UNL     1     -41.872  40.700  29.178  1.00  0.00    -0.219 NA
ATOM     68  H   UNL     1     -42.647  39.546  30.701  1.00  0.00     0.106 H 
BRANCH  65  69
ATOM     69  N   UNL     1     -41.059  42.009  27.428  1.00  0.00    -0.383 N 
ATOM     70  H   UNL     1     -40.196  42.000  27.953  1.00  0.00     0.158 HD
ATOM     71  H   UNL     1     -41.401  42.919  27.140  1.00  0.00     0.158 HD
ENDBRANCH  65  69
ENDBRANCH  53  57
ENDBRANCH  45  48
ENDBRANCH  42  45
ENDBRANCH   7  42
TORSDOF 14
ENDMDL
MODEL 2
REMARK VINA RESULT:      -9.0      2.649     12.023
REMARK SMILES CCc1cc(NCCCN(C)C)c2ccc(CCc3cncc(-n4ccc5c(N)ncnc54)c3)cc2n1
REMARK SMILES IDX 3 1 4 2 5 3 13 4 14 5 15 6 16 7 35 8 36 9 37 10 2 15 1 18
REMARK SMILES IDX 6 22 7 24 8 27 9 30 10 33 11 34 12 38 17 42 18 45 19 48
REMARK SMILES IDX 20 49 34 50 21 51 23 53 22 55 24 57 25 58 33 59 26 60 27 62
REMARK SMILES IDX 32 63 28 65 31 66 30 67 29 69
REMARK H PARENT 4 11 14 12 15 13 35 14 2 16 2 17 1 19 1 20 1 21 6 23 7 25 7 26
REMARK H PARENT 8 28 8 29 9 31 9 32 11 35 11 36 11 37 12 39 12 40 12 41 17 43
REMARK H PARENT 17 44 18 46 18 47 20 52 34 54 22 56 25 61 26 64 31 68 29 70
REMARK H PARENT 29 71
REMARK Flexibility Score: inf
ROOT
ATOM      1  C   UNL     1     -42.941  41.409  28.059  1.00  0.00     0.043 A 
ATOM      2  C   UNL     1     -43.362  42.133  26.949  1.00  0.00    -0.017 A 
ATOM      3  C   UNL     1     -44.536  41.774  26.285  1.00  0.00     0.045 A 
ATOM      4  C   UNL     1     -45.211  40.596  26.724  1.00  0.00     0.023 A 
ATOM      5  C   UNL     1     -46.354  40.046  26.090  1.00  0.00    -0.050 A 
ATOM      6  C   UNL     1     -46.991  38.908  26.584  1.00  0.00    -0.058 A 
ATOM      7  C   UNL     1     -46.505  38.280  27.727  1.00  0.00    -0.045 A 
ATOM      8  C   UNL     1     -45.364  38.808  28.347  1.00  0.00    -0.032 A 
ATOM      9  C   UNL     1     -44.708  39.936  27.868  1.00  0.00     0.073 A 
ATOM     10  N   UNL     1     -43.614  40.339  28.527  1.00  0.00    -0.253 NA
ATOM     11  H   UNL     1     -42.769  42.982  26.633  1.00  0.00     0.066 H 
ATOM     12  H   UNL     1     -46.758  40.495  25.188  1.00  0.00     0.063 H 
ATOM     13  H   UNL     1     -47.873  38.525  26.074  1.00  0.00     0.063 H 
ATOM     14  H   UNL     1     -44.963  38.327  29.237  1.00  0.00     0.065 H 
ENDROOT
BRANCH   1  15
ATOM     15  C   UNL     1     -41.707  41.823  28.818  1.00  0.00    -0.013 C 
ATOM     16  H   UNL     1     -41.785  42.876  29.111  1.00  0.00     0.033 H 
ATOM     17  H   UNL     1     -40.836  41.747  28.157  1.00  0.00     0.033 H 
BRANCH  15  18
ATOM     18  C   UNL     1     -41.488  40.952  30.045  1.00  0.00    -0.060 C 
ATOM     19  H   UNL     1     -41.923  41.411  30.939  1.00  0.00     0.023 H 
ATOM     20  H   UNL     1     -40.421  40.793  30.235  1.00  0.00     0.023 H 
ATOM     21  H   UNL     1     -41.956  39.973  29.902  1.00  0.00     0.023 H 
ENDBRANCH  15  18
ENDBRANCH   1  15
BRANCH   3  22
ATOM     22  N   UNL     1     -44.986  42.466  25.148  1.00  0.00    -0.384 N 
ATOM     23  H   UNL     1     -45.292  41.833  24.416  1.00  0.00     0.160 HD
BRANCH  22  24
ATOM     24  C   UNL     1     -45.811  43.669  25.226  1.00  0.00     0.016 C 
ATOM     25  H   UNL     1     -46.856  43.408  25.430  1.00  0.00     0.049 H 
ATOM     26  H   UNL     1     -45.479  44.244  26.100  1.00  0.00     0.049 H 
BRANCH  24  27
ATOM     27  C   UNL     1     -45.717  44.559  23.983  1.00  0.00    -0.023 C 
ATOM     28  H   UNL     1     -45.410  45.555  24.323  1.00  0.00     0.030 H 
ATOM     29  H   UNL     1     -46.701  44.676  23.514  1.00  0.00     0.030 H 
BRANCH  27  30
ATOM     30  C   UNL     1     -44.718  44.026  22.948  1.00  0.00    -0.001 C 
ATOM     31  H   UNL     1     -45.141  44.214  21.953  1.00  0.00     0.043 H 
ATOM     32  H   UNL     1     -44.609  42.938  23.045  1.00  0.00     0.043 H 
BRANCH  30  33
ATOM     33  N   UNL     1     -43.405  44.692  23.031  1.00  0.00    -0.309 NA
BRANCH  33  34
ATOM     34  C   UNL     1     -42.298  43.733  23.038  1.00  0.00    -0.014 C 
ATOM     35  H   UNL     1     -42.022  43.428  24.055  1.00  0.00     0.039 H 
ATOM     36  H   UNL     1     -42.566  42.834  22.473  1.00  0.00     0.039 H 
ATOM     37  H   UNL     1     -41.411  44.143  22.546  1.00  0.00     0.039 H 
ENDBRANCH  33  34
BRANCH  33  38
ATOM     38  C   UNL     1     -43.241  45.621  21.909  1.00  0.00    -0.014 C 
ATOM     39  H   UNL     1     -43.260  46.659  22.260  1.00  0.00     0.039 H 
ATOM     40  H   UNL     1     -44.070  45.520  21.198  1.00  0.00     0.039 H 
ATOM     41  H   UNL     1     -42.301  45.455  21.370  1.00  0.00     0.039 H 
ENDBRANCH  33  38
ENDBRANCH  30  33
ENDBRANCH  27  30
ENDBRANCH  24  27
ENDBRANCH  22  24
ENDBRANCH   3  22
BRANCH   7  42
ATOM     42  C   UNL     1     -47.202  37.072  28.305  1.00  0.00    -0.024 C 
ATOM     43  H   UNL     1     -47.866  37.412  29.110  1.00  0.00     0.032 H 
ATOM     44  H   UNL     1     -46.467  36.413  28.785  1.00  0.00     0.032 H 
BRANCH  42  45
ATOM     45  C   UNL     1     -48.030  36.302  27.269  1.00  0.00    -0.022 C 
ATOM     46  H   UNL     1     -49.073  36.263  27.608  1.00  0.00     0.032 H 
ATOM     47  H   UNL     1     -48.049  36.838  26.312  1.00  0.00     0.032 H 
BRANCH  45  48
ATOM     48  C   UNL     1     -47.553  34.888  27.053  1.00  0.00    -0.027 A 
ATOM     49  C   UNL     1     -46.584  34.322  27.871  1.00  0.00     0.030 A 
ATOM     50  C   UNL     1     -48.093  34.091  26.033  1.00  0.00    -0.032 A 
ATOM     51  N   UNL     1     -46.130  33.059  27.730  1.00  0.00    -0.262 NA
ATOM     52  H   UNL     1     -46.137  34.881  28.690  1.00  0.00     0.084 H 
ATOM     53  C   UNL     1     -47.654  32.776  25.854  1.00  0.00     0.066 A 
ATOM     54  H   UNL     1     -48.841  34.539  25.389  1.00  0.00     0.065 H 
ATOM     55  C   UNL     1     -46.671  32.320  26.730  1.00  0.00     0.051 A 
ATOM     56  H   UNL     1     -46.265  31.316  26.698  1.00  0.00     0.086 H 
BRANCH  53  57
ATOM     57  N   UNL     1     -48.173  31.925  24.826  1.00  0.00    -0.300 N 
ATOM     58  C   UNL     1     -49.451  31.378  24.812  1.00  0.00     0.012 A 
ATOM     59  C   UNL     1     -47.528  31.486  23.663  1.00  0.00     0.150 A 
ATOM     60  C   UNL     1     -49.613  30.609  23.683  1.00  0.00    -0.031 A 
ATOM     61  H   UNL     1     -50.156  31.553  25.611  1.00  0.00     0.082 H 
ATOM     62  C   UNL     1     -48.405  30.670  22.952  1.00  0.00     0.061 A 
ATOM     63  N   UNL     1     -46.280  31.801  23.259  1.00  0.00    -0.218 NA
ATOM     64  H   UNL     1     -50.509  30.066  23.414  1.00  0.00     0.065 H 
ATOM     65  C   UNL     1     -47.943  30.126  21.744  1.00  0.00     0.136 A 
ATOM     66  C   UNL     1     -45.953  31.230  22.092  1.00  0.00     0.120 A 
ATOM     67  N   UNL     1     -46.699  30.416  21.329  1.00  0.00    -0.219 NA
ATOM     68  H   UNL     1     -44.957  31.449  21.716  1.00  0.00     0.106 H 
BRANCH  65  69
ATOM     69  N   UNL     1     -48.700  29.284  20.942  1.00  0.00    -0.383 N 
ATOM     70  H   UNL     1     -48.367  28.332  20.886  1.00  0.00     0.158 HD
ATOM     71  H   UNL     1     -48.922  29.736  20.062  1.00  0.00     0.158 HD
ENDBRANCH  65  69
ENDBRANCH  53  57
ENDBRANCH  45  48
ENDBRANCH  42  45
ENDBRANCH   7  42
TORSDOF 14
ENDMDL
MODEL 3
REMARK VINA RESULT:      -8.5      1.602      2.345
REMARK SMILES CCc1cc(NCCCN(C)C)c2ccc(CCc3cncc(-n4ccc5c(N)ncnc54)c3)cc2n1
REMARK SMILES IDX 3 1 4 2 5 3 13 4 14 5 15 6 16 7 35 8 36 9 37 10 2 15 1 18
REMARK SMILES IDX 6 22 7 24 8 27 9 30 10 33 11 34 12 38 17 42 18 45 19 48
REMARK SMILES IDX 20 49 34 50 21 51 23 53 22 55 24 57 25 58 33 59 26 60 27 62
REMARK SMILES IDX 32 63 28 65 31 66 30 67 29 69
REMARK H PARENT 4 11 14 12 15 13 35 14 2 16 2 17 1 19 1 20 1 21 6 23 7 25 7 26
REMARK H PARENT 8 28 8 29 9 31 9 32 11 35 11 36 11 37 12 39 12 40 12 41 17 43
REMARK H PARENT 17 44 18 46 18 47 20 52 34 54 22 56 25 61 26 64 31 68 29 70
REMARK H PARENT 29 71
REMARK Flexibility Score: inf
ROOT
ATOM      1  C   UNL     1     -46.323  30.787  23.136  1.00  0.00     0.043 A 
ATOM      2  C   UNL     1     -47.540  30.127  23.261  1.00  0.00    -0.017 A 
ATOM      3  C   UNL     1     -48.560  30.681  24.037  1.00  0.00     0.045 A 
ATOM      4  C   UNL     1     -48.266  31.875  24.760  1.00  0.00     0.023 A 
ATOM      5  C   UNL     1     -49.159  32.501  25.667  1.00  0.00    -0.050 A 
ATOM      6  C   UNL     1     -48.828  33.686  26.323  1.00  0.00    -0.058 A 
ATOM      7  C   UNL     1     -47.591  34.284  26.097  1.00  0.00    -0.045 A 
ATOM      8  C   UNL     1     -46.698  33.660  25.216  1.00  0.00    -0.032 A 
ATOM      9  C   UNL     1     -47.003  32.475  24.558  1.00  0.00     0.073 A 
ATOM     10  N   UNL     1     -46.063  31.955  23.756  1.00  0.00    -0.253 NA
ATOM     11  H   UNL     1     -47.675  29.192  22.731  1.00  0.00     0.066 H 
ATOM     12  H   UNL     1     -50.128  32.062  25.884  1.00  0.00     0.063 H 
ATOM     13  H   UNL     1     -49.548  34.140  27.002  1.00  0.00     0.063 H 
ATOM     14  H   UNL     1     -45.722  34.107  25.032  1.00  0.00     0.065 H 
ENDROOT
BRANCH   1  15
ATOM     15  C   UNL     1     -45.236  30.227  22.256  1.00  0.00    -0.013 C 
ATOM     16  H   UNL     1     -44.312  30.802  22.393  1.00  0.00     0.033 H 
ATOM     17  H   UNL     1     -45.526  30.348  21.205  1.00  0.00     0.033 H 
BRANCH  15  18
ATOM     18  C   UNL     1     -44.986  28.755  22.545  1.00  0.00    -0.060 C 
ATOM     19  H   UNL     1     -44.345  28.305  21.780  1.00  0.00     0.023 H 
ATOM     20  H   UNL     1     -45.924  28.190  22.572  1.00  0.00     0.023 H 
ATOM     21  H   UNL     1     -44.492  28.639  23.514  1.00  0.00     0.023 H 
ENDBRANCH  15  18
ENDBRANCH   1  15
BRANCH   3  22
ATOM     22  N   UNL     1     -49.797  30.036  24.205  1.00  0.00    -0.384 N 
ATOM     23  H   UNL     1     -50.458  30.614  24.715  1.00  0.00     0.160 HD
BRANCH  22  24
ATOM     24  C   UNL     1     -50.438  29.258  23.148  1.00  0.00     0.016 C 
ATOM     25  H   UNL     1     -51.321  29.780  22.765  1.00  0.00     0.049 H 
ATOM     26  H   UNL     1     -49.740  29.210  22.302  1.00  0.00     0.049 H 
BRANCH  24  27
ATOM     27  C   UNL     1     -50.802  27.832  23.570  1.00  0.00    -0.023 C 
ATOM     28  H   UNL     1     -51.029  27.274  22.655  1.00  0.00     0.030 H 
ATOM     29  H   UNL     1     -51.715  27.828  24.176  1.00  0.00     0.030 H 
BRANCH  27  30
ATOM     30  C   UNL     1     -49.673  27.137  24.343  1.00  0.00    -0.001 C 
ATOM     31  H   UNL     1     -48.750  27.697  24.154  1.00  0.00     0.043 H 
ATOM     32  H   UNL     1     -49.513  26.122  23.956  1.00  0.00     0.043 H 
BRANCH  30  33
ATOM     33  N   UNL     1     -49.915  27.110  25.798  1.00  0.00    -0.309 NA
BRANCH  33  34
ATOM     34  C   UNL     1     -50.531  25.855  26.233  1.00  0.00    -0.014 C 
ATOM     35  H   UNL     1     -51.360  25.554  25.582  1.00  0.00     0.039 H 
ATOM     36  H   UNL     1     -49.791  25.046  26.239  1.00  0.00     0.039 H 
ATOM     37  H   UNL     1     -50.903  25.927  27.258  1.00  0.00     0.039 H 
ENDBRANCH  33  34
BRANCH  33  38
ATOM     38  C   UNL     1     -48.654  27.313  26.520  1.00  0.00    -0.014 C 
ATOM     39  H   UNL     1     -48.763  27.034  27.574  1.00  0.00     0.039 H 
ATOM     40  H   UNL     1     -48.368  28.371  26.507  1.00  0.00     0.039 H 
ATOM     41  H   UNL     1     -47.834  26.727  26.089  1.00  0.00     0.039 H 
ENDBRANCH  33  38
ENDBRANCH  30  33
ENDBRANCH  27  30
ENDBRANCH  24  27
ENDBRANCH  22  24
ENDBRANCH   3  22
BRANCH   7  42
ATOM     42  C   UNL     1     -47.227  35.589  26.762  1.00  0.00    -0.024 C 
ATOM     43  H   UNL     1     -48.023  35.847  27.472  1.00  0.00     0.032 H 
ATOM     44  H   UNL     1     -47.219  36.396  26.018  1.00  0.00     0.032 H 
BRANCH  42  45
ATOM     45  C   UNL     1     -45.891  35.529  27.514  1.00  0.00    -0.022 C 
ATOM     46  H   UNL     1     -45.978  34.803  28.332  1.00  0.00     0.032 H 
ATOM     47  H   UNL     1     -45.096  35.145  26.861  1.00  0.00     0.032 H 
BRANCH  45  48
ATOM     48  C   UNL     1     -45.475  36.853  28.101  1.00  0.00    -0.027 A 
ATOM     49  C   UNL     1     -45.002  36.946  29.404  1.00  0.00     0.030 A 
ATOM     50  C   UNL     1     -45.528  38.031  27.341  1.00  0.00    -0.032 A 
ATOM     51  N   UNL     1     -44.604  38.102  29.975  1.00  0.00    -0.262 NA
ATOM     52  H   UNL     1     -44.920  36.068  30.040  1.00  0.00     0.084 H 
ATOM     53  C   UNL     1     -45.123  39.249  27.893  1.00  0.00     0.066 A 
ATOM     54  H   UNL     1     -45.908  37.957  26.328  1.00  0.00     0.065 H 
ATOM     55  C   UNL     1     -44.675  39.220  29.212  1.00  0.00     0.051 A 
ATOM     56  H   UNL     1     -44.322  40.099  29.740  1.00  0.00     0.086 H 
BRANCH  53  57
ATOM     57  N   UNL     1     -45.162  40.477  27.157  1.00  0.00    -0.300 N 
ATOM     58  C   UNL     1     -46.304  41.034  26.594  1.00  0.00     0.012 A 
ATOM     59  C   UNL     1     -44.099  41.340  26.865  1.00  0.00     0.150 A 
ATOM     60  C   UNL     1     -45.980  42.209  25.956  1.00  0.00    -0.031 A 
ATOM     61  H   UNL     1     -47.269  40.554  26.664  1.00  0.00     0.082 H 
ATOM     62  C   UNL     1     -44.590  42.410  26.120  1.00  0.00     0.061 A 
ATOM     63  N   UNL     1     -42.812  41.201  27.244  1.00  0.00    -0.218 NA
ATOM     64  H   UNL     1     -46.673  42.855  25.433  1.00  0.00     0.065 H 
ATOM     65  C   UNL     1     -43.673  43.396  25.726  1.00  0.00     0.136 A 
ATOM     66  C   UNL     1     -42.033  42.204  26.816  1.00  0.00     0.120 A 
ATOM     67  N   UNL     1     -42.384  43.272  26.082  1.00  0.00    -0.219 NA
ATOM     68  H   UNL     1     -40.984  42.145  27.093  1.00  0.00     0.106 H 
BRANCH  65  69
ATOM     69  N   UNL     1     -44.018  44.507  24.969  1.00  0.00    -0.383 N 
ATOM     70  H   UNL     1     -43.773  45.397  25.378  1.00  0.00     0.158 HD
ATOM     71  H   UNL     1     -44.966  44.418  24.621  1.00  0.00     0.158 HD
ENDBRANCH  65  69
ENDBRANCH  53  57
ENDBRANCH  45  48
ENDBRANCH  42  45
ENDBRANCH   7  42
TORSDOF 14
ENDMDL
MODEL 4
REMARK VINA RESULT:      -8.5      1.472      2.382
REMARK SMILES CCc1cc(NCCCN(C)C)c2ccc(CCc3cncc(-n4ccc5c(N)ncnc54)c3)cc2n1
REMARK SMILES IDX 3 1 4 2 5 3 13 4 14 5 15 6 16 7 35 8 36 9 37 10 2 15 1 18
REMARK SMILES IDX 6 22 7 24 8 27 9 30 10 33 11 34 12 38 17 42 18 45 19 48
REMARK SMILES IDX 20 49 34 50 21 51 23 53 22 55 24 57 25 58 33 59 26 60 27 62
REMARK SMILES IDX 32 63 28 65 31 66 30 67 29 69
REMARK H PARENT 4 11 14 12 15 13 35 14 2 16 2 17 1 19 1 20 1 21 6 23 7 25 7 26
REMARK H PARENT 8 28 8 29 9 31 9 32 11 35 11 36 11 37 12 39 12 40 12 41 17 43
REMARK H PARENT 17 44 18 46 18 47 20 52 34 54 22 56 25 61 26 64 31 68 29 70
REMARK H PARENT 29 71
REMARK Flexibility Score: inf
ROOT
ATOM      1  C   UNL     1     -46.294  30.921  22.146  1.00  0.00     0.043 A 
ATOM      2  C   UNL     1     -47.074  29.883  22.640  1.00  0.00    -0.017 A 
ATOM      3  C   UNL     1     -47.741  30.028  23.858  1.00  0.00     0.045 A 
ATOM      4  C   UNL     1     -47.505  31.222  24.603  1.00  0.00     0.023 A 
ATOM      5  C   UNL     1     -48.025  31.471  25.899  1.00  0.00    -0.050 A 
ATOM      6  C   UNL     1     -47.786  32.672  26.567  1.00  0.00    -0.058 A 
ATOM      7  C   UNL     1     -47.016  33.662  25.962  1.00  0.00    -0.045 A 
ATOM      8  C   UNL     1     -46.484  33.413  24.690  1.00  0.00    -0.032 A 
ATOM      9  C   UNL     1     -46.702  32.222  24.009  1.00  0.00     0.073 A 
ATOM     10  N   UNL     1     -46.126  32.083  22.808  1.00  0.00    -0.253 NA
ATOM     11  H   UNL     1     -47.163  28.979  22.050  1.00  0.00     0.066 H 
ATOM     12  H   UNL     1     -48.618  30.722  26.413  1.00  0.00     0.063 H 
ATOM     13  H   UNL     1     -48.214  32.829  27.555  1.00  0.00     0.063 H 
ATOM     14  H   UNL     1     -45.872  34.171  24.204  1.00  0.00     0.065 H 
ENDROOT
BRANCH   1  15
ATOM     15  C   UNL     1     -45.617  30.798  20.805  1.00  0.00    -0.013 C 
ATOM     16  H   UNL     1     -45.729  29.776  20.424  1.00  0.00     0.033 H 
ATOM     17  H   UNL     1     -44.541  30.968  20.929  1.00  0.00     0.033 H 
BRANCH  15  18
ATOM     18  C   UNL     1     -46.175  31.796  19.803  1.00  0.00    -0.060 C 
ATOM     19  H   UNL     1     -46.900  32.467  20.275  1.00  0.00     0.023 H 
ATOM     20  H   UNL     1     -46.678  31.288  18.974  1.00  0.00     0.023 H 
ATOM     21  H   UNL     1     -45.367  32.406  19.387  1.00  0.00     0.023 H 
ENDBRANCH  15  18
ENDBRANCH   1  15
BRANCH   3  22
ATOM     22  N   UNL     1     -48.524  28.996  24.402  1.00  0.00    -0.384 N 
ATOM     23  H   UNL     1     -49.359  28.825  23.851  1.00  0.00     0.160 HD
BRANCH  22  24
ATOM     24  C   UNL     1     -47.952  27.766  24.944  1.00  0.00     0.016 C 
ATOM     25  H   UNL     1     -47.065  27.468  24.373  1.00  0.00     0.049 H 
ATOM     26  H   UNL     1     -47.586  27.987  25.954  1.00  0.00     0.049 H 
BRANCH  24  27
ATOM     27  C   UNL     1     -48.950  26.607  25.021  1.00  0.00    -0.023 C 
ATOM     28  H   UNL     1     -48.400  25.732  25.386  1.00  0.00     0.030 H 
ATOM     29  H   UNL     1     -49.325  26.350  24.024  1.00  0.00     0.030 H 
BRANCH  27  30
ATOM     30  C   UNL     1     -50.134  26.907  25.950  1.00  0.00    -0.001 C 
ATOM     31  H   UNL     1     -50.212  27.996  26.044  1.00  0.00     0.043 H 
ATOM     32  H   UNL     1     -49.939  26.515  26.958  1.00  0.00     0.043 H 
BRANCH  30  33
ATOM     33  N   UNL     1     -51.412  26.389  25.427  1.00  0.00    -0.309 NA
BRANCH  33  34
ATOM     34  C   UNL     1     -52.378  26.118  26.494  1.00  0.00    -0.014 C 
ATOM     35  H   UNL     1     -52.461  26.955  27.197  1.00  0.00     0.039 H 
ATOM     36  H   UNL     1     -53.371  25.926  26.072  1.00  0.00     0.039 H 
ATOM     37  H   UNL     1     -52.112  25.218  27.055  1.00  0.00     0.039 H 
ENDBRANCH  33  34
BRANCH  33  38
ATOM     38  C   UNL     1     -51.988  27.343  24.474  1.00  0.00    -0.014 C 
ATOM     39  H   UNL     1     -51.911  26.961  23.450  1.00  0.00     0.039 H 
ATOM     40  H   UNL     1     -51.435  28.290  24.493  1.00  0.00     0.039 H 
ATOM     41  H   UNL     1     -53.042  27.553  24.688  1.00  0.00     0.039 H 
ENDBRANCH  33  38
ENDBRANCH  30  33
ENDBRANCH  27  30
ENDBRANCH  24  27
ENDBRANCH  22  24
ENDBRANCH   3  22
BRANCH   7  42
ATOM     42  C   UNL     1     -46.779  34.987  26.647  1.00  0.00    -0.024 C 
ATOM     43  H   UNL     1     -46.438  35.707  25.892  1.00  0.00     0.032 H 
ATOM     44  H   UNL     1     -45.951  34.894  27.362  1.00  0.00     0.032 H 
BRANCH  42  45
ATOM     45  C   UNL     1     -48.032  35.542  27.335  1.00  0.00    -0.022 C 
ATOM     46  H   UNL     1     -48.903  35.343  26.697  1.00  0.00     0.032 H 
ATOM     47  H   UNL     1     -48.226  35.010  28.275  1.00  0.00     0.032 H 
BRANCH  45  48
ATOM     48  C   UNL     1     -47.967  37.025  27.591  1.00  0.00    -0.027 A 
ATOM     49  C   UNL     1     -49.108  37.753  27.904  1.00  0.00     0.030 A 
ATOM     50  C   UNL     1     -46.746  37.714  27.548  1.00  0.00    -0.032 A 
ATOM     51  N   UNL     1     -49.105  39.079  28.155  1.00  0.00    -0.262 NA
ATOM     52  H   UNL     1     -50.083  37.277  27.970  1.00  0.00     0.084 H 
ATOM     53  C   UNL     1     -46.697  39.088  27.804  1.00  0.00     0.066 A 
ATOM     54  H   UNL     1     -45.858  37.146  27.293  1.00  0.00     0.065 H 
ATOM     55  C   UNL     1     -47.908  39.712  28.099  1.00  0.00     0.051 A 
ATOM     56  H   UNL     1     -47.991  40.768  28.329  1.00  0.00     0.086 H 
BRANCH  53  57
ATOM     57  N   UNL     1     -45.475  39.833  27.769  1.00  0.00    -0.300 N 
ATOM     58  C   UNL     1     -44.373  39.597  28.582  1.00  0.00     0.012 A 
ATOM     59  C   UNL     1     -45.148  40.912  26.940  1.00  0.00     0.150 A 
ATOM     60  C   UNL     1     -43.378  40.501  28.287  1.00  0.00    -0.031 A 
ATOM     61  H   UNL     1     -44.370  38.818  29.330  1.00  0.00     0.082 H 
ATOM     62  C   UNL     1     -43.858  41.336  27.252  1.00  0.00     0.061 A 
ATOM     63  N   UNL     1     -45.918  41.458  25.975  1.00  0.00    -0.218 NA
ATOM     64  H   UNL     1     -42.408  40.549  28.764  1.00  0.00     0.065 H 
ATOM     65  C   UNL     1     -43.340  42.417  26.522  1.00  0.00     0.136 A 
ATOM     66  C   UNL     1     -45.317  42.476  25.344  1.00  0.00     0.120 A 
ATOM     67  N   UNL     1     -44.094  42.983  25.566  1.00  0.00    -0.219 NA
ATOM     68  H   UNL     1     -45.891  42.954  24.555  1.00  0.00     0.106 H 
BRANCH  65  69
ATOM     69  N   UNL     1     -42.079  42.953  26.738  1.00  0.00    -0.383 N 
ATOM     70  H   UNL     1     -41.354  42.601  26.129  1.00  0.00     0.158 HD
ATOM     71  H   UNL     1     -41.864  42.970  27.729  1.00  0.00     0.158 HD
ENDBRANCH  65  69
ENDBRANCH  53  57
ENDBRANCH  45  48
ENDBRANCH  42  45
ENDBRANCH   7  42
TORSDOF 14
ENDMDL
MODEL 5
REMARK VINA RESULT:      -8.4      1.439      1.932
REMARK SMILES CCc1cc(NCCCN(C)C)c2ccc(CCc3cncc(-n4ccc5c(N)ncnc54)c3)cc2n1
REMARK SMILES IDX 3 1 4 2 5 3 13 4 14 5 15 6 16 7 35 8 36 9 37 10 2 15 1 18
REMARK SMILES IDX 6 22 7 24 8 27 9 30 10 33 11 34 12 38 17 42 18 45 19 48
REMARK SMILES IDX 20 49 34 50 21 51 23 53 22 55 24 57 25 58 33 59 26 60 27 62
REMARK SMILES IDX 32 63 28 65 31 66 30 67 29 69
REMARK H PARENT 4 11 14 12 15 13 35 14 2 16 2 17 1 19 1 20 1 21 6 23 7 25 7 26
REMARK H PARENT 8 28 8 29 9 31 9 32 11 35 11 36 11 37 12 39 12 40 12 41 17 43
REMARK H PARENT 17 44 18 46 18 47 20 52 34 54 22 56 25 61 26 64 31 68 29 70
REMARK H PARENT 29 71
REMARK Flexibility Score: inf
ROOT
ATOM      1  C   UNL     1     -46.441  31.154  22.832  1.00  0.00     0.043 A 
ATOM      2  C   UNL     1     -47.465  30.347  23.313  1.00  0.00    -0.017 A 
ATOM      3  C   UNL     1     -48.240  30.772  24.395  1.00  0.00     0.045 A 
ATOM      4  C   UNL     1     -47.872  31.995  25.031  1.00  0.00     0.023 A 
ATOM      5  C   UNL     1     -48.494  32.507  26.198  1.00  0.00    -0.050 A 
ATOM      6  C   UNL     1     -48.113  33.726  26.759  1.00  0.00    -0.058 A 
ATOM      7  C   UNL     1     -47.095  34.472  26.173  1.00  0.00    -0.045 A 
ATOM      8  C   UNL     1     -46.464  33.963  25.030  1.00  0.00    -0.032 A 
ATOM      9  C   UNL     1     -46.822  32.747  24.459  1.00  0.00     0.073 A 
ATOM     10  N   UNL     1     -46.135  32.347  23.380  1.00  0.00    -0.253 NA
ATOM     11  H   UNL     1     -47.652  29.402  22.819  1.00  0.00     0.066 H 
ATOM     12  H   UNL     1     -49.283  31.951  26.696  1.00  0.00     0.063 H 
ATOM     13  H   UNL     1     -48.625  34.088  27.649  1.00  0.00     0.063 H 
ATOM     14  H   UNL     1     -45.660  34.527  24.561  1.00  0.00     0.065 H 
ENDROOT
BRANCH   1  15
ATOM     15  C   UNL     1     -45.636  30.731  21.630  1.00  0.00    -0.013 C 
ATOM     16  H   UNL     1     -45.803  29.667  21.425  1.00  0.00     0.033 H 
ATOM     17  H   UNL     1     -44.568  30.841  21.855  1.00  0.00     0.033 H 
BRANCH  15  18
ATOM     18  C   UNL     1     -45.982  31.562  20.405  1.00  0.00    -0.060 C 
ATOM     19  H   UNL     1     -45.268  32.381  20.267  1.00  0.00     0.023 H 
ATOM     20  H   UNL     1     -46.982  32.000  20.491  1.00  0.00     0.023 H 
ATOM     21  H   UNL     1     -45.962  30.938  19.506  1.00  0.00     0.023 H 
ENDBRANCH  15  18
ENDBRANCH   1  15
BRANCH   3  22
ATOM     22  N   UNL     1     -49.271  29.979  24.924  1.00  0.00    -0.384 N 
ATOM     23  H   UNL     1     -50.111  30.021  24.355  1.00  0.00     0.160 HD
BRANCH  22  24
ATOM     24  C   UNL     1     -49.043  28.648  25.483  1.00  0.00     0.016 C 
ATOM     25  H   UNL     1     -48.107  28.623  26.051  1.00  0.00     0.049 H 
ATOM     26  H   UNL     1     -49.834  28.458  26.219  1.00  0.00     0.049 H 
BRANCH  24  27
ATOM     27  C   UNL     1     -49.062  27.532  24.436  1.00  0.00    -0.023 C 
ATOM     28  H   UNL     1     -48.079  27.047  24.464  1.00  0.00     0.030 H 
ATOM     29  H   UNL     1     -49.179  27.946  23.428  1.00  0.00     0.030 H 
BRANCH  27  30
ATOM     30  C   UNL     1     -50.165  26.497  24.694  1.00  0.00    -0.001 C 
ATOM     31  H   UNL     1     -50.575  26.693  25.692  1.00  0.00     0.043 H 
ATOM     32  H   UNL     1     -49.741  25.484  24.719  1.00  0.00     0.043 H 
BRANCH  30  33
ATOM     33  N   UNL     1     -51.262  26.580  23.712  1.00  0.00    -0.309 NA
BRANCH  33  34
ATOM     34  C   UNL     1     -52.345  27.456  24.165  1.00  0.00    -0.014 C 
ATOM     35  H   UNL     1     -51.973  28.426  24.513  1.00  0.00     0.039 H 
ATOM     36  H   UNL     1     -53.058  27.635  23.352  1.00  0.00     0.039 H 
ATOM     37  H   UNL     1     -52.920  26.994  24.972  1.00  0.00     0.039 H 
ENDBRANCH  33  34
BRANCH  33  38
ATOM     38  C   UNL     1     -50.749  27.060  22.425  1.00  0.00    -0.014 C 
ATOM     39  H   UNL     1     -51.312  27.938  22.087  1.00  0.00     0.039 H 
ATOM     40  H   UNL     1     -50.874  26.295  21.649  1.00  0.00     0.039 H 
ATOM     41  H   UNL     1     -49.688  27.328  22.479  1.00  0.00     0.039 H 
ENDBRANCH  33  38
ENDBRANCH  30  33
ENDBRANCH  27  30
ENDBRANCH  24  27
ENDBRANCH  22  24
ENDBRANCH   3  22
BRANCH   7  42
ATOM     42  C   UNL     1     -46.693  35.814  26.735  1.00  0.00    -0.024 C 
ATOM     43  H   UNL     1     -46.517  36.500  25.897  1.00  0.00     0.032 H 
ATOM     44  H   UNL     1     -45.730  35.727  27.255  1.00  0.00     0.032 H 
BRANCH  42  45
ATOM     45  C   UNL     1     -47.757  36.422  27.659  1.00  0.00    -0.022 C 
ATOM     46  H   UNL     1     -48.743  36.046  27.358  1.00  0.00     0.032 H 
ATOM     47  H   UNL     1     -47.613  36.082  28.692  1.00  0.00     0.032 H 
BRANCH  45  48
ATOM     48  C   UNL     1     -47.795  37.928  27.617  1.00  0.00    -0.027 A 
ATOM     49  C   UNL     1     -48.918  38.632  28.034  1.00  0.00     0.030 A 
ATOM     50  C   UNL     1     -46.687  38.668  27.180  1.00  0.00    -0.032 A 
ATOM     51  N   UNL     1     -49.002  39.978  28.030  1.00  0.00    -0.262 NA
ATOM     52  H   UNL     1     -49.804  38.119  28.399  1.00  0.00     0.084 H 
ATOM     53  C   UNL     1     -46.730  40.066  27.162  1.00  0.00     0.066 A 
ATOM     54  H   UNL     1     -45.816  38.117  26.844  1.00  0.00     0.065 H 
ATOM     55  C   UNL     1     -47.913  40.660  27.596  1.00  0.00     0.051 A 
ATOM     56  H   UNL     1     -48.058  41.733  27.641  1.00  0.00     0.086 H 
BRANCH  53  57
ATOM     57  N   UNL     1     -45.625  40.863  26.722  1.00  0.00    -0.300 N 
ATOM     58  C   UNL     1     -45.620  41.660  25.583  1.00  0.00     0.012 A 
ATOM     59  C   UNL     1     -44.370  41.004  27.325  1.00  0.00     0.150 A 
ATOM     60  C   UNL     1     -44.399  42.281  25.459  1.00  0.00    -0.031 A 
ATOM     61  H   UNL     1     -46.473  41.721  24.924  1.00  0.00     0.082 H 
ATOM     62  C   UNL     1     -43.602  41.872  26.552  1.00  0.00     0.061 A 
ATOM     63  N   UNL     1     -43.950  40.429  28.471  1.00  0.00    -0.218 NA
ATOM     64  H   UNL     1     -44.115  42.961  24.666  1.00  0.00     0.065 H 
ATOM     65  C   UNL     1     -42.299  42.147  26.994  1.00  0.00     0.136 A 
ATOM     66  C   UNL     1     -42.695  40.769  28.794  1.00  0.00     0.120 A 
ATOM     67  N   UNL     1     -41.856  41.576  28.125  1.00  0.00    -0.219 NA
ATOM     68  H   UNL     1     -42.304  40.335  29.710  1.00  0.00     0.106 H 
BRANCH  65  69
ATOM     69  N   UNL     1     -41.419  42.979  26.316  1.00  0.00    -0.383 N 
ATOM     70  H   UNL     1     -40.752  43.464  26.900  1.00  0.00     0.158 HD
ATOM     71  H   UNL     1     -41.916  43.545  25.637  1.00  0.00     0.158 HD
ENDBRANCH  65  69
ENDBRANCH  53  57
ENDBRANCH  45  48
ENDBRANCH  42  45
ENDBRANCH   7  42
TORSDOF 14
ENDMDL
MODEL 6
REMARK VINA RESULT:      -8.3      1.749     11.838
REMARK SMILES CCc1cc(NCCCN(C)C)c2ccc(CCc3cncc(-n4ccc5c(N)ncnc54)c3)cc2n1
REMARK SMILES IDX 3 1 4 2 5 3 13 4 14 5 15 6 16 7 35 8 36 9 37 10 2 15 1 18
REMARK SMILES IDX 6 22 7 24 8 27 9 30 10 33 11 34 12 38 17 42 18 45 19 48
REMARK SMILES IDX 20 49 34 50 21 51 23 53 22 55 24 57 25 58 33 59 26 60 27 62
REMARK SMILES IDX 32 63 28 65 31 66 30 67 29 69
REMARK H PARENT 4 11 14 12 15 13 35 14 2 16 2 17 1 19 1 20 1 21 6 23 7 25 7 26
REMARK H PARENT 8 28 8 29 9 31 9 32 11 35 11 36 11 37 12 39 12 40 12 41 17 43
REMARK H PARENT 17 44 18 46 18 47 20 52 34 54 22 56 25 61 26 64 31 68 29 70
REMARK H PARENT 29 71
REMARK Flexibility Score: inf
ROOT
ATOM      1  C   UNL     1     -50.231  36.761  27.742  1.00  0.00     0.043 A 
ATOM      2  C   UNL     1     -49.375  37.768  28.171  1.00  0.00    -0.017 A 
ATOM      3  C   UNL     1     -47.995  37.631  28.005  1.00  0.00     0.045 A 
ATOM      4  C   UNL     1     -47.513  36.395  27.481  1.00  0.00     0.023 A 
ATOM      5  C   UNL     1     -46.139  36.065  27.349  1.00  0.00    -0.050 A 
ATOM      6  C   UNL     1     -45.725  34.851  26.801  1.00  0.00    -0.058 A 
ATOM      7  C   UNL     1     -46.671  33.925  26.369  1.00  0.00    -0.045 A 
ATOM      8  C   UNL     1     -48.029  34.238  26.514  1.00  0.00    -0.032 A 
ATOM      9  C   UNL     1     -48.465  35.438  27.065  1.00  0.00     0.073 A 
ATOM     10  N   UNL     1     -49.787  35.621  27.177  1.00  0.00    -0.253 NA
ATOM     11  H   UNL     1     -49.806  38.657  28.615  1.00  0.00     0.066 H 
ATOM     12  H   UNL     1     -45.369  36.751  27.686  1.00  0.00     0.063 H 
ATOM     13  H   UNL     1     -44.662  34.642  26.706  1.00  0.00     0.063 H 
ATOM     14  H   UNL     1     -48.785  33.524  26.190  1.00  0.00     0.065 H 
ENDROOT
BRANCH   1  15
ATOM     15  C   UNL     1     -51.724  36.924  27.864  1.00  0.00    -0.013 C 
ATOM     16  H   UNL     1     -52.205  35.939  27.888  1.00  0.00     0.033 H 
ATOM     17  H   UNL     1     -52.105  37.434  26.972  1.00  0.00     0.033 H 
BRANCH  15  18
ATOM     18  C   UNL     1     -52.100  37.722  29.102  1.00  0.00    -0.060 C 
ATOM     19  H   UNL     1     -52.344  38.758  28.846  1.00  0.00     0.023 H 
ATOM     20  H   UNL     1     -51.280  37.739  29.828  1.00  0.00     0.023 H 
ATOM     21  H   UNL     1     -52.974  37.277  29.588  1.00  0.00     0.023 H 
ENDBRANCH  15  18
ENDBRANCH   1  15
BRANCH   3  22
ATOM     22  N   UNL     1     -47.094  38.616  28.442  1.00  0.00    -0.384 N 
ATOM     23  H   UNL     1     -46.373  38.229  29.043  1.00  0.00     0.160 HD
BRANCH  22  24
ATOM     24  C   UNL     1     -46.586  39.672  27.569  1.00  0.00     0.016 C 
ATOM     25  H   UNL     1     -47.217  39.775  26.679  1.00  0.00     0.049 H 
ATOM     26  H   UNL     1     -46.684  40.623  28.107  1.00  0.00     0.049 H 
BRANCH  24  27
ATOM     27  C   UNL     1     -45.121  39.481  27.165  1.00  0.00    -0.023 C 
ATOM     28  H   UNL     1     -45.092  39.439  26.070  1.00  0.00     0.030 H 
ATOM     29  H   UNL     1     -44.741  38.519  27.526  1.00  0.00     0.030 H 
BRANCH  27  30
ATOM     30  C   UNL     1     -44.215  40.610  27.671  1.00  0.00    -0.001 C 
ATOM     31  H   UNL     1     -43.507  40.172  28.384  1.00  0.00     0.043 H 
ATOM     32  H   UNL     1     -44.803  41.354  28.225  1.00  0.00     0.043 H 
BRANCH  30  33
ATOM     33  N   UNL     1     -43.450  41.254  26.586  1.00  0.00    -0.309 NA
BRANCH  33  34
ATOM     34  C   UNL     1     -44.302  42.062  25.712  1.00  0.00    -0.014 C 
ATOM     35  H   UNL     1     -43.873  43.051  25.515  1.00  0.00     0.039 H 
ATOM     36  H   UNL     1     -44.452  41.558  24.750  1.00  0.00     0.039 H 
ATOM     37  H   UNL     1     -45.300  42.195  26.138  1.00  0.00     0.039 H 
ENDBRANCH  33  34
BRANCH  33  38
ATOM     38  C   UNL     1     -42.389  42.095  27.150  1.00  0.00    -0.014 C 
ATOM     39  H   UNL     1     -41.591  42.254  26.417  1.00  0.00     0.039 H 
ATOM     40  H   UNL     1     -41.923  41.603  28.012  1.00  0.00     0.039 H 
ATOM     41  H   UNL     1     -42.766  43.073  27.471  1.00  0.00     0.039 H 
ENDBRANCH  33  38
ENDBRANCH  30  33
ENDBRANCH  27  30
ENDBRANCH  24  27
ENDBRANCH  22  24
ENDBRANCH   3  22
BRANCH   7  42
ATOM     42  C   UNL     1     -46.249  32.623  25.732  1.00  0.00    -0.024 C 
ATOM     43  H   UNL     1     -46.977  31.852  26.013  1.00  0.00     0.032 H 
ATOM     44  H   UNL     1     -45.291  32.295  26.157  1.00  0.00     0.032 H 
BRANCH  42  45
ATOM     45  C   UNL     1     -46.168  32.699  24.202  1.00  0.00    -0.022 C 
ATOM     46  H   UNL     1     -46.722  33.584  23.862  1.00  0.00     0.032 H 
ATOM     47  H   UNL     1     -45.132  32.856  23.876  1.00  0.00     0.032 H 
BRANCH  45  48
ATOM     48  C   UNL     1     -46.744  31.490  23.512  1.00  0.00    -0.027 A 
ATOM     49  C   UNL     1     -46.309  31.106  22.250  1.00  0.00     0.030 A 
ATOM     50  C   UNL     1     -47.721  30.698  24.134  1.00  0.00    -0.032 A 
ATOM     51  N   UNL     1     -46.781  30.027  21.591  1.00  0.00    -0.262 NA
ATOM     52  H   UNL     1     -45.544  31.667  21.720  1.00  0.00     0.084 H 
ATOM     53  C   UNL     1     -48.234  29.569  23.489  1.00  0.00     0.066 A 
ATOM     54  H   UNL     1     -48.066  31.006  25.114  1.00  0.00     0.065 H 
ATOM     55  C   UNL     1     -47.728  29.289  22.222  1.00  0.00     0.051 A 
ATOM     56  H   UNL     1     -48.039  28.433  21.633  1.00  0.00     0.086 H 
BRANCH  53  57
ATOM     57  N   UNL     1     -49.233  28.733  24.083  1.00  0.00    -0.300 N 
ATOM     58  C   UNL     1     -50.599  28.830  23.846  1.00  0.00     0.012 A 
ATOM     59  C   UNL     1     -49.049  27.682  24.989  1.00  0.00     0.150 A 
ATOM     60  C   UNL     1     -51.266  27.878  24.582  1.00  0.00    -0.031 A 
ATOM     61  H   UNL     1     -51.014  29.578  23.186  1.00  0.00     0.082 H 
ATOM     62  C   UNL     1     -50.296  27.149  25.309  1.00  0.00     0.061 A 
ATOM     63  N   UNL     1     -47.877  27.222  25.473  1.00  0.00    -0.218 NA
ATOM     64  H   UNL     1     -52.337  27.723  24.591  1.00  0.00     0.065 H 
ATOM     65  C   UNL     1     -50.327  26.075  26.210  1.00  0.00     0.136 A 
ATOM     66  C   UNL     1     -48.030  26.193  26.317  1.00  0.00     0.120 A 
ATOM     67  N   UNL     1     -49.172  25.609  26.713  1.00  0.00    -0.219 NA
ATOM     68  H   UNL     1     -47.118  25.781  26.738  1.00  0.00     0.106 H 
BRANCH  65  69
ATOM     69  N   UNL     1     -51.497  25.458  26.630  1.00  0.00    -0.383 N 
ATOM     70  H   UNL     1     -51.464  24.449  26.657  1.00  0.00     0.158 HD
ATOM     71  H   UNL     1     -52.300  25.869  26.168  1.00  0.00     0.158 HD
ENDBRANCH  65  69
ENDBRANCH  53  57
ENDBRANCH  45  48
ENDBRANCH  42  45
ENDBRANCH   7  42
TORSDOF 14
ENDMDL
MODEL 7
REMARK VINA RESULT:      -8.2      2.068      3.985
REMARK SMILES CCc1cc(NCCCN(C)C)c2ccc(CCc3cncc(-n4ccc5c(N)ncnc54)c3)cc2n1
REMARK SMILES IDX 3 1 4 2 5 3 13 4 14 5 15 6 16 7 35 8 36 9 37 10 2 15 1 18
REMARK SMILES IDX 6 22 7 24 8 27 9 30 10 33 11 34 12 38 17 42 18 45 19 48
REMARK SMILES IDX 20 49 34 50 21 51 23 53 22 55 24 57 25 58 33 59 26 60 27 62
REMARK SMILES IDX 32 63 28 65 31 66 30 67 29 69
REMARK H PARENT 4 11 14 12 15 13 35 14 2 16 2 17 1 19 1 20 1 21 6 23 7 25 7 26
REMARK H PARENT 8 28 8 29 9 31 9 32 11 35 11 36 11 37 12 39 12 40 12 41 17 43
REMARK H PARENT 17 44 18 46 18 47 20 52 34 54 22 56 25 61 26 64 31 68 29 70
REMARK H PARENT 29 71
REMARK Flexibility Score: inf
ROOT
ATOM      1  C   UNL     1     -48.729  29.144  25.016  1.00  0.00     0.043 A 
ATOM      2  C   UNL     1     -48.041  29.068  23.811  1.00  0.00    -0.017 A 
ATOM      3  C   UNL     1     -47.206  30.115  23.415  1.00  0.00     0.045 A 
ATOM      4  C   UNL     1     -47.175  31.282  24.236  1.00  0.00     0.023 A 
ATOM      5  C   UNL     1     -46.460  32.464  23.917  1.00  0.00    -0.050 A 
ATOM      6  C   UNL     1     -46.441  33.565  24.775  1.00  0.00    -0.058 A 
ATOM      7  C   UNL     1     -47.139  33.520  25.978  1.00  0.00    -0.045 A 
ATOM      8  C   UNL     1     -47.863  32.361  26.289  1.00  0.00    -0.032 A 
ATOM      9  C   UNL     1     -47.903  31.257  25.447  1.00  0.00     0.073 A 
ATOM     10  N   UNL     1     -48.646  30.211  25.835  1.00  0.00    -0.253 NA
ATOM     11  H   UNL     1     -48.156  28.176  23.207  1.00  0.00     0.066 H 
ATOM     12  H   UNL     1     -45.913  32.548  22.983  1.00  0.00     0.063 H 
ATOM     13  H   UNL     1     -45.869  34.448  24.498  1.00  0.00     0.063 H 
ATOM     14  H   UNL     1     -48.423  32.309  27.222  1.00  0.00     0.065 H 
ENDROOT
BRANCH   1  15
ATOM     15  C   UNL     1     -49.587  27.995  25.480  1.00  0.00    -0.013 C 
ATOM     16  H   UNL     1     -50.605  28.349  25.682  1.00  0.00     0.033 H 
ATOM     17  H   UNL     1     -49.195  27.615  26.431  1.00  0.00     0.033 H 
BRANCH  15  18
ATOM     18  C   UNL     1     -49.615  26.870  24.458  1.00  0.00    -0.060 C 
ATOM     19  H   UNL     1     -48.704  26.264  24.511  1.00  0.00     0.023 H 
ATOM     20  H   UNL     1     -49.699  27.261  23.438  1.00  0.00     0.023 H 
ATOM     21  H   UNL     1     -50.471  26.214  24.642  1.00  0.00     0.023 H 
ENDBRANCH  15  18
ENDBRANCH   1  15
BRANCH   3  22
ATOM     22  N   UNL     1     -46.509  30.087  22.196  1.00  0.00    -0.384 N 
ATOM     23  H   UNL     1     -46.117  29.170  22.006  1.00  0.00     0.160 HD
BRANCH  22  24
ATOM     24  C   UNL     1     -46.995  30.747  20.987  1.00  0.00     0.016 C 
ATOM     25  H   UNL     1     -46.949  31.836  21.097  1.00  0.00     0.049 H 
ATOM     26  H   UNL     1     -46.297  30.508  20.175  1.00  0.00     0.049 H 
BRANCH  24  27
ATOM     27  C   UNL     1     -48.403  30.311  20.574  1.00  0.00    -0.023 C 
ATOM     28  H   UNL     1     -48.677  29.462  21.211  1.00  0.00     0.030 H 
ATOM     29  H   UNL     1     -48.409  29.945  19.542  1.00  0.00     0.030 H 
BRANCH  27  30
ATOM     30  C   UNL     1     -49.438  31.434  20.724  1.00  0.00    -0.001 C 
ATOM     31  H   UNL     1     -49.717  31.763  19.716  1.00  0.00     0.043 H 
ATOM     32  H   UNL     1     -48.991  32.302  21.227  1.00  0.00     0.043 H 
BRANCH  30  33
ATOM     33  N   UNL     1     -50.657  30.993  21.427  1.00  0.00    -0.309 NA
BRANCH  33  34
ATOM     34  C   UNL     1     -50.787  29.535  21.447  1.00  0.00    -0.014 C 
ATOM     35  H   UNL     1     -51.347  29.157  20.584  1.00  0.00     0.039 H 
ATOM     36  H   UNL     1     -49.798  29.062  21.446  1.00  0.00     0.039 H 
ATOM     37  H   UNL     1     -51.282  29.190  22.359  1.00  0.00     0.039 H 
ENDBRANCH  33  34
BRANCH  33  38
ATOM     38  C   UNL     1     -50.658  31.505  22.801  1.00  0.00    -0.014 C 
ATOM     39  H   UNL     1     -49.963  30.933  23.427  1.00  0.00     0.039 H 
ATOM     40  H   UNL     1     -51.649  31.390  23.256  1.00  0.00     0.039 H 
ATOM     41  H   UNL     1     -50.376  32.563  22.847  1.00  0.00     0.039 H 
ENDBRANCH  33  38
ENDBRANCH  30  33
ENDBRANCH  27  30
ENDBRANCH  24  27
ENDBRANCH  22  24
ENDBRANCH   3  22
BRANCH   7  42
ATOM     42  C   UNL     1     -47.099  34.681  26.942  1.00  0.00    -0.024 C 
ATOM     43  H   UNL     1     -47.897  34.540  27.683  1.00  0.00     0.032 H 
ATOM     44  H   UNL     1     -47.346  35.611  26.415  1.00  0.00     0.032 H 
BRANCH  42  45
ATOM     45  C   UNL     1     -45.757  34.809  27.674  1.00  0.00    -0.022 C 
ATOM     46  H   UNL     1     -45.588  33.900  28.266  1.00  0.00     0.032 H 
ATOM     47  H   UNL     1     -44.927  34.854  26.957  1.00  0.00     0.032 H 
BRANCH  45  48
ATOM     48  C   UNL     1     -45.693  35.993  28.604  1.00  0.00    -0.027 A 
ATOM     49  C   UNL     1     -46.365  35.992  29.819  1.00  0.00     0.030 A 
ATOM     50  C   UNL     1     -44.930  37.126  28.282  1.00  0.00    -0.032 A 
ATOM     51  N   UNL     1     -46.332  37.019  30.694  1.00  0.00    -0.262 NA
ATOM     52  H   UNL     1     -46.961  35.139  30.136  1.00  0.00     0.084 H 
ATOM     53  C   UNL     1     -44.866  38.211  29.161  1.00  0.00     0.066 A 
ATOM     54  H   UNL     1     -44.416  37.129  27.327  1.00  0.00     0.065 H 
ATOM     55  C   UNL     1     -45.589  38.098  30.347  1.00  0.00     0.051 A 
ATOM     56  H   UNL     1     -45.603  38.868  31.110  1.00  0.00     0.086 H 
BRANCH  53  57
ATOM     57  N   UNL     1     -44.104  39.388  28.874  1.00  0.00    -0.300 N 
ATOM     58  C   UNL     1     -43.047  39.861  29.643  1.00  0.00     0.012 A 
ATOM     59  C   UNL     1     -44.256  40.273  27.801  1.00  0.00     0.150 A 
ATOM     60  C   UNL     1     -42.547  41.014  29.083  1.00  0.00    -0.031 A 
ATOM     61  H   UNL     1     -42.729  39.363  30.547  1.00  0.00     0.082 H 
ATOM     62  C   UNL     1     -43.304  41.283  27.921  1.00  0.00     0.061 A 
ATOM     63  N   UNL     1     -45.147  40.180  26.792  1.00  0.00    -0.218 NA
ATOM     64  H   UNL     1     -41.720  41.596  29.470  1.00  0.00     0.065 H 
ATOM     65  C   UNL     1     -43.291  42.277  26.931  1.00  0.00     0.136 A 
ATOM     66  C   UNL     1     -45.035  41.180  25.906  1.00  0.00     0.120 A 
ATOM     67  N   UNL     1     -44.177  42.211  25.924  1.00  0.00    -0.219 NA
ATOM     68  H   UNL     1     -45.728  41.156  25.070  1.00  0.00     0.106 H 
BRANCH  65  69
ATOM     69  N   UNL     1     -42.410  43.350  26.933  1.00  0.00    -0.383 N 
ATOM     70  H   UNL     1     -42.556  44.025  26.196  1.00  0.00     0.158 HD
ATOM     71  H   UNL     1     -41.458  43.028  27.065  1.00  0.00     0.158 HD
ENDBRANCH  65  69
ENDBRANCH  53  57
ENDBRANCH  45  48
ENDBRANCH  42  45
ENDBRANCH   7  42
TORSDOF 14
ENDMDL
