MODEL 1
REMARK VINA RESULT:      -9.8      0.000      0.000
REMARK SMILES CN(C[C@H]1C[C@@H](n2ccc3c(N)ncnc32)[C@H](O)[C@@H]1O)c1ccc2ccc(N)nc2c1
REMARK SMILES IDX 3 1 2 4 1 5 21 9 22 10 31 11 23 12 30 14 24 16 29 18 25 19
REMARK SMILES IDX 27 20 26 21 28 24 4 27 5 28 19 29 6 31 17 34 20 38 7 40 8 41
REMARK SMILES IDX 16 42 9 43 10 45 15 46 11 48 14 49 13 50 12 52 18 55
REMARK H PARENT 3 2 3 3 1 6 1 7 1 8 22 13 31 15 23 17 25 22 26 23 28 25 28 26
REMARK H PARENT 4 30 5 32 5 33 19 35 6 36 17 37 20 39 8 44 9 47 14 51 12 53
REMARK H PARENT 12 54 18 56
REMARK Flexibility Score: inf
ROOT
ATOM      1  C   UNL     1     -47.345  36.249  27.439  1.00  0.00     0.023 C 
ATOM      2  H   UNL     1     -46.816  36.472  26.508  1.00  0.00     0.050 H 
ATOM      3  H   UNL     1     -47.846  37.179  27.740  1.00  0.00     0.050 H 
ENDROOT
BRANCH   1   4
ATOM      4  N   UNL     1     -48.368  35.200  27.214  1.00  0.00    -0.374 N 
BRANCH   4   5
ATOM      5  C   UNL     1     -49.732  35.681  26.967  1.00  0.00     0.006 C 
ATOM      6  H   UNL     1     -49.818  36.159  25.985  1.00  0.00     0.046 H 
ATOM      7  H   UNL     1     -50.028  36.410  27.727  1.00  0.00     0.046 H 
ATOM      8  H   UNL     1     -50.462  34.866  27.043  1.00  0.00     0.046 H 
ENDBRANCH   4   5
BRANCH   4   9
ATOM      9  C   UNL     1     -47.906  34.172  26.356  1.00  0.00     0.039 A 
ATOM     10  C   UNL     1     -46.732  34.270  25.598  1.00  0.00    -0.038 A 
ATOM     11  C   UNL     1     -48.655  32.987  26.218  1.00  0.00    -0.012 A 
ATOM     12  C   UNL     1     -46.326  33.230  24.757  1.00  0.00    -0.051 A 
ATOM     13  H   UNL     1     -46.095  35.146  25.652  1.00  0.00     0.064 H 
ATOM     14  C   UNL     1     -48.279  31.931  25.393  1.00  0.00     0.075 A 
ATOM     15  H   UNL     1     -49.590  32.878  26.758  1.00  0.00     0.067 H 
ATOM     16  C   UNL     1     -47.091  32.062  24.653  1.00  0.00     0.000 A 
ATOM     17  H   UNL     1     -45.405  33.341  24.186  1.00  0.00     0.063 H 
ATOM     18  N   UNL     1     -49.050  30.828  25.329  1.00  0.00    -0.231 NA
ATOM     19  C   UNL     1     -46.718  31.002  23.820  1.00  0.00    -0.049 A 
ATOM     20  C   UNL     1     -48.666  29.821  24.528  1.00  0.00     0.124 A 
ATOM     21  C   UNL     1     -47.519  29.868  23.755  1.00  0.00    -0.019 A 
ATOM     22  H   UNL     1     -45.815  31.055  23.218  1.00  0.00     0.063 H 
ATOM     23  H   UNL     1     -47.254  29.042  23.103  1.00  0.00     0.066 H 
BRANCH  20  24
ATOM     24  N   UNL     1     -49.504  28.710  24.483  1.00  0.00    -0.384 N 
ATOM     25  H   UNL     1     -49.565  28.432  23.506  1.00  0.00     0.158 HD
ATOM     26  H   UNL     1     -50.415  28.916  24.873  1.00  0.00     0.158 HD
ENDBRANCH  20  24
ENDBRANCH   4   9
ENDBRANCH   1   4
BRANCH   1  27
ATOM     27  C   UNL     1     -46.312  35.873  28.517  1.00  0.00     0.007 C 
ATOM     28  C   UNL     1     -44.920  36.497  28.305  1.00  0.00    -0.022 C 
ATOM     29  C   UNL     1     -46.714  36.429  29.884  1.00  0.00     0.086 C 
ATOM     30  H   UNL     1     -46.213  34.783  28.568  1.00  0.00     0.035 H 
ATOM     31  C   UNL     1     -44.912  37.846  29.057  1.00  0.00     0.064 C 
ATOM     32  H   UNL     1     -44.183  35.844  28.793  1.00  0.00     0.029 H 
ATOM     33  H   UNL     1     -44.617  36.537  27.259  1.00  0.00     0.029 H 
ATOM     34  C   UNL     1     -46.236  37.883  29.853  1.00  0.00     0.101 C 
ATOM     35  H   UNL     1     -47.785  36.346  30.097  1.00  0.00     0.063 H 
ATOM     36  H   UNL     1     -44.052  37.847  29.742  1.00  0.00     0.056 H 
ATOM     37  H   UNL     1     -46.984  38.519  29.365  1.00  0.00     0.065 H 
BRANCH  29  38
ATOM     38  O   UNL     1     -46.011  35.720  30.909  1.00  0.00    -0.390 OA
ATOM     39  H   UNL     1     -45.937  34.803  30.571  1.00  0.00     0.211 HD
ENDBRANCH  29  38
BRANCH  31  40
ATOM     40  N   UNL     1     -44.748  39.060  28.262  1.00  0.00    -0.327 N 
ATOM     41  C   UNL     1     -45.432  39.436  27.135  1.00  0.00     0.007 A 
ATOM     42  C   UNL     1     -43.824  40.038  28.573  1.00  0.00     0.145 A 
ATOM     43  C   UNL     1     -44.938  40.655  26.716  1.00  0.00    -0.031 A 
ATOM     44  H   UNL     1     -46.218  38.832  26.701  1.00  0.00     0.082 H 
ATOM     45  C   UNL     1     -43.918  41.044  27.623  1.00  0.00     0.061 A 
ATOM     46  N   UNL     1     -42.990  40.015  29.632  1.00  0.00    -0.218 NA
ATOM     47  H   UNL     1     -45.280  41.203  25.848  1.00  0.00     0.065 H 
ATOM     48  C   UNL     1     -43.051  42.134  27.767  1.00  0.00     0.136 A 
ATOM     49  C   UNL     1     -42.204  41.108  29.657  1.00  0.00     0.120 A 
ATOM     50  N   UNL     1     -42.193  42.151  28.805  1.00  0.00    -0.219 NA
ATOM     51  H   UNL     1     -41.487  41.160  30.472  1.00  0.00     0.106 H 
BRANCH  48  52
ATOM     52  N   UNL     1     -43.034  43.222  26.907  1.00  0.00    -0.383 N 
ATOM     53  H   UNL     1     -43.412  44.077  27.291  1.00  0.00     0.158 HD
ATOM     54  H   UNL     1     -42.144  43.292  26.428  1.00  0.00     0.158 HD
ENDBRANCH  48  52
ENDBRANCH  31  40
BRANCH  34  55
ATOM     55  O   UNL     1     -46.058  38.354  31.192  1.00  0.00    -0.388 OA
ATOM     56  H   UNL     1     -46.403  37.640  31.773  1.00  0.00     0.211 HD
ENDBRANCH  34  55
ENDBRANCH   1  27
TORSDOF 9
ENDMDL
MODEL 2
REMARK VINA RESULT:      -9.1      1.609      9.253
REMARK SMILES CN(C[C@H]1C[C@@H](n2ccc3c(N)ncnc32)[C@H](O)[C@@H]1O)c1ccc2ccc(N)nc2c1
REMARK SMILES IDX 3 1 2 4 1 5 21 9 22 10 31 11 23 12 30 14 24 16 29 18 25 19
REMARK SMILES IDX 27 20 26 21 28 24 4 27 5 28 19 29 6 31 17 34 20 38 7 40 8 41
REMARK SMILES IDX 16 42 9 43 10 45 15 46 11 48 14 49 13 50 12 52 18 55
REMARK H PARENT 3 2 3 3 1 6 1 7 1 8 22 13 31 15 23 17 25 22 26 23 28 25 28 26
REMARK H PARENT 4 30 5 32 5 33 19 35 6 36 17 37 20 39 8 44 9 47 14 51 12 53
REMARK H PARENT 12 54 18 56
REMARK Flexibility Score: inf
ROOT
ATOM      1  C   UNL     1     -46.514  37.162  26.792  1.00  0.00     0.023 C 
ATOM      2  H   UNL     1     -46.810  36.715  25.838  1.00  0.00     0.050 H 
ATOM      3  H   UNL     1     -45.420  37.077  26.846  1.00  0.00     0.050 H 
ENDROOT
BRANCH   1   4
ATOM      4  N   UNL     1     -46.889  38.595  26.830  1.00  0.00    -0.374 N 
BRANCH   4   5
ATOM      5  C   UNL     1     -48.015  38.938  27.708  1.00  0.00     0.006 C 
ATOM      6  H   UNL     1     -47.703  39.608  28.517  1.00  0.00     0.046 H 
ATOM      7  H   UNL     1     -48.442  38.037  28.157  1.00  0.00     0.046 H 
ATOM      8  H   UNL     1     -48.834  39.400  27.144  1.00  0.00     0.046 H 
ENDBRANCH   4   5
BRANCH   4   9
ATOM      9  C   UNL     1     -45.760  39.446  26.907  1.00  0.00     0.039 A 
ATOM     10  C   UNL     1     -45.356  40.289  25.864  1.00  0.00    -0.038 A 
ATOM     11  C   UNL     1     -44.966  39.451  28.071  1.00  0.00    -0.012 A 
ATOM     12  C   UNL     1     -44.226  41.102  25.987  1.00  0.00    -0.051 A 
ATOM     13  H   UNL     1     -45.916  40.349  24.936  1.00  0.00     0.064 H 
ATOM     14  C   UNL     1     -43.837  40.250  28.229  1.00  0.00     0.075 A 
ATOM     15  H   UNL     1     -45.217  38.790  28.895  1.00  0.00     0.067 H 
ATOM     16  C   UNL     1     -43.467  41.088  27.164  1.00  0.00     0.000 A 
ATOM     17  H   UNL     1     -43.945  41.747  25.156  1.00  0.00     0.063 H 
ATOM     18  N   UNL     1     -43.142  40.200  29.383  1.00  0.00    -0.231 NA
ATOM     19  C   UNL     1     -42.329  41.885  27.322  1.00  0.00    -0.049 A 
ATOM     20  C   UNL     1     -42.057  40.981  29.513  1.00  0.00     0.124 A 
ATOM     21  C   UNL     1     -41.612  41.828  28.512  1.00  0.00    -0.019 A 
ATOM     22  H   UNL     1     -41.992  42.544  26.526  1.00  0.00     0.063 H 
ATOM     23  H   UNL     1     -40.719  42.426  28.648  1.00  0.00     0.066 H 
BRANCH  20  24
ATOM     24  N   UNL     1     -41.362  40.882  30.715  1.00  0.00    -0.384 N 
ATOM     25  H   UNL     1     -40.675  41.632  30.717  1.00  0.00     0.158 HD
ATOM     26  H   UNL     1     -40.927  39.974  30.819  1.00  0.00     0.158 HD
ENDBRANCH  20  24
ENDBRANCH   4   9
ENDBRANCH   1   4
BRANCH   1  27
ATOM     27  C   UNL     1     -47.131  36.338  27.937  1.00  0.00     0.007 C 
ATOM     28  C   UNL     1     -48.012  35.164  27.469  1.00  0.00    -0.022 C 
ATOM     29  C   UNL     1     -46.049  35.629  28.751  1.00  0.00     0.086 C 
ATOM     30  H   UNL     1     -47.721  36.995  28.586  1.00  0.00     0.035 H 
ATOM     31  C   UNL     1     -47.092  33.930  27.350  1.00  0.00     0.064 C 
ATOM     32  H   UNL     1     -48.741  34.957  28.265  1.00  0.00     0.029 H 
ATOM     33  H   UNL     1     -48.611  35.396  26.588  1.00  0.00     0.029 H 
ATOM     34  C   UNL     1     -45.733  34.370  27.940  1.00  0.00     0.101 C 
ATOM     35  H   UNL     1     -45.160  36.242  28.933  1.00  0.00     0.063 H 
ATOM     36  H   UNL     1     -47.529  33.122  27.953  1.00  0.00     0.056 H 
ATOM     37  H   UNL     1     -45.004  34.597  27.154  1.00  0.00     0.065 H 
BRANCH  29  38
ATOM     38  O   UNL     1     -46.584  35.253  30.024  1.00  0.00    -0.390 OA
ATOM     39  H   UNL     1     -46.833  36.100  30.449  1.00  0.00     0.211 HD
ENDBRANCH  29  38
BRANCH  31  40
ATOM     40  N   UNL     1     -46.918  33.345  26.023  1.00  0.00    -0.327 N 
ATOM     41  C   UNL     1     -46.189  33.832  24.969  1.00  0.00     0.007 A 
ATOM     42  C   UNL     1     -47.505  32.152  25.650  1.00  0.00     0.145 A 
ATOM     43  C   UNL     1     -46.318  32.953  23.912  1.00  0.00    -0.031 A 
ATOM     44  H   UNL     1     -45.629  34.755  25.025  1.00  0.00     0.082 H 
ATOM     45  C   UNL     1     -47.151  31.885  24.336  1.00  0.00     0.061 A 
ATOM     46  N   UNL     1     -48.276  31.381  26.442  1.00  0.00    -0.218 NA
ATOM     47  H   UNL     1     -45.858  33.072  22.940  1.00  0.00     0.065 H 
ATOM     48  C   UNL     1     -47.656  30.707  23.772  1.00  0.00     0.136 A 
ATOM     49  C   UNL     1     -48.708  30.286  25.786  1.00  0.00     0.120 A 
ATOM     50  N   UNL     1     -48.439  29.909  24.522  1.00  0.00    -0.219 NA
ATOM     51  H   UNL     1     -49.352  29.617  26.350  1.00  0.00     0.106 H 
BRANCH  48  52
ATOM     52  N   UNL     1     -47.381  30.296  22.475  1.00  0.00    -0.383 N 
ATOM     53  H   UNL     1     -48.179  29.958  21.956  1.00  0.00     0.158 HD
ATOM     54  H   UNL     1     -46.779  30.961  22.004  1.00  0.00     0.158 HD
ENDBRANCH  48  52
ENDBRANCH  31  40
BRANCH  34  55
ATOM     55  O   UNL     1     -45.163  33.380  28.802  1.00  0.00    -0.388 OA
ATOM     56  H   UNL     1     -45.586  33.516  29.679  1.00  0.00     0.211 HD
ENDBRANCH  34  55
ENDBRANCH   1  27
TORSDOF 9
ENDMDL
MODEL 3
REMARK VINA RESULT:      -8.7      5.008     10.717
REMARK SMILES CN(C[C@H]1C[C@@H](n2ccc3c(N)ncnc32)[C@H](O)[C@@H]1O)c1ccc2ccc(N)nc2c1
REMARK SMILES IDX 3 1 2 4 1 5 21 9 22 10 31 11 23 12 30 14 24 16 29 18 25 19
REMARK SMILES IDX 27 20 26 21 28 24 4 27 5 28 19 29 6 31 17 34 20 38 7 40 8 41
REMARK SMILES IDX 16 42 9 43 10 45 15 46 11 48 14 49 13 50 12 52 18 55
REMARK H PARENT 3 2 3 3 1 6 1 7 1 8 22 13 31 15 23 17 25 22 26 23 28 25 28 26
REMARK H PARENT 4 30 5 32 5 33 19 35 6 36 17 37 20 39 8 44 9 47 14 51 12 53
REMARK H PARENT 12 54 18 56
REMARK Flexibility Score: inf
ROOT
ATOM      1  C   UNL     1     -46.631  31.651  24.636  1.00  0.00     0.023 C 
ATOM      2  H   UNL     1     -45.814  32.372  24.745  1.00  0.00     0.050 H 
ATOM      3  H   UNL     1     -46.288  30.722  25.111  1.00  0.00     0.050 H 
ENDROOT
BRANCH   1   4
ATOM      4  N   UNL     1     -47.843  32.134  25.338  1.00  0.00    -0.374 N 
BRANCH   4   5
ATOM      5  C   UNL     1     -48.466  31.183  26.266  1.00  0.00     0.006 C 
ATOM      6  H   UNL     1     -47.929  30.229  26.285  1.00  0.00     0.046 H 
ATOM      7  H   UNL     1     -49.503  30.984  25.976  1.00  0.00     0.046 H 
ATOM      8  H   UNL     1     -48.521  31.594  27.281  1.00  0.00     0.046 H 
ENDBRANCH   4   5
BRANCH   4   9
ATOM      9  C   UNL     1     -47.699  33.461  25.812  1.00  0.00     0.039 A 
ATOM     10  C   UNL     1     -46.529  34.214  25.653  1.00  0.00    -0.038 A 
ATOM     11  C   UNL     1     -48.761  34.076  26.505  1.00  0.00    -0.012 A 
ATOM     12  C   UNL     1     -46.433  35.517  26.150  1.00  0.00    -0.051 A 
ATOM     13  H   UNL     1     -45.667  33.816  25.126  1.00  0.00     0.064 H 
ATOM     14  C   UNL     1     -48.702  35.372  27.009  1.00  0.00     0.075 A 
ATOM     15  H   UNL     1     -49.677  33.522  26.684  1.00  0.00     0.067 H 
ATOM     16  C   UNL     1     -47.514  36.099  26.825  1.00  0.00     0.000 A 
ATOM     17  H   UNL     1     -45.509  36.072  26.004  1.00  0.00     0.063 H 
ATOM     18  N   UNL     1     -49.770  35.886  27.650  1.00  0.00    -0.231 NA
ATOM     19  C   UNL     1     -47.455  37.399  27.338  1.00  0.00    -0.049 A 
ATOM     20  C   UNL     1     -49.690  37.139  28.127  1.00  0.00     0.124 A 
ATOM     21  C   UNL     1     -48.557  37.924  28.001  1.00  0.00    -0.019 A 
ATOM     22  H   UNL     1     -46.556  38.001  27.232  1.00  0.00     0.063 H 
ATOM     23  H   UNL     1     -48.525  38.923  28.420  1.00  0.00     0.066 H 
BRANCH  20  24
ATOM     24  N   UNL     1     -50.813  37.620  28.796  1.00  0.00    -0.384 N 
ATOM     25  H   UNL     1     -50.543  37.738  29.769  1.00  0.00     0.158 HD
ATOM     26  H   UNL     1     -51.601  36.992  28.698  1.00  0.00     0.158 HD
ENDBRANCH  20  24
ENDBRANCH   4   9
ENDBRANCH   1   4
BRANCH   1  27
ATOM     27  C   UNL     1     -46.858  31.384  23.136  1.00  0.00     0.007 C 
ATOM     28  C   UNL     1     -46.175  30.109  22.609  1.00  0.00    -0.022 C 
ATOM     29  C   UNL     1     -48.333  31.110  22.842  1.00  0.00     0.086 C 
ATOM     30  H   UNL     1     -46.512  32.245  22.553  1.00  0.00     0.035 H 
ATOM     31  C   UNL     1     -47.192  28.958  22.759  1.00  0.00     0.064 C 
ATOM     32  H   UNL     1     -45.991  30.249  21.534  1.00  0.00     0.029 H 
ATOM     33  H   UNL     1     -45.191  29.932  23.045  1.00  0.00     0.029 H 
ATOM     34  C   UNL     1     -48.516  29.630  23.190  1.00  0.00     0.101 C 
ATOM     35  H   UNL     1     -49.022  31.756  23.395  1.00  0.00     0.063 H 
ATOM     36  H   UNL     1     -47.308  28.477  21.777  1.00  0.00     0.056 H 
ATOM     37  H   UNL     1     -48.700  29.512  24.264  1.00  0.00     0.065 H 
BRANCH  29  38
ATOM     38  O   UNL     1     -48.582  31.304  21.447  1.00  0.00    -0.390 OA
ATOM     39  H   UNL     1     -49.282  30.653  21.226  1.00  0.00     0.211 HD
ENDBRANCH  29  38
BRANCH  31  40
ATOM     40  N   UNL     1     -46.845  27.865  23.664  1.00  0.00    -0.327 N 
ATOM     41  C   UNL     1     -45.676  27.151  23.724  1.00  0.00     0.007 A 
ATOM     42  C   UNL     1     -47.710  27.392  24.631  1.00  0.00     0.145 A 
ATOM     43  C   UNL     1     -45.796  26.209  24.726  1.00  0.00    -0.031 A 
ATOM     44  H   UNL     1     -44.839  27.347  23.067  1.00  0.00     0.082 H 
ATOM     45  C   UNL     1     -47.083  26.355  25.306  1.00  0.00     0.061 A 
ATOM     46  N   UNL     1     -48.945  27.874  24.876  1.00  0.00    -0.218 NA
ATOM     47  H   UNL     1     -45.034  25.494  25.007  1.00  0.00     0.065 H 
ATOM     48  C   UNL     1     -47.809  25.739  26.333  1.00  0.00     0.136 A 
ATOM     49  C   UNL     1     -49.543  27.196  25.874  1.00  0.00     0.120 A 
ATOM     50  N   UNL     1     -49.051  26.180  26.608  1.00  0.00    -0.219 NA
ATOM     51  H   UNL     1     -50.553  27.511  26.126  1.00  0.00     0.106 H 
BRANCH  48  52
ATOM     52  N   UNL     1     -47.314  24.699  27.107  1.00  0.00    -0.383 N 
ATOM     53  H   UNL     1     -47.193  23.823  26.619  1.00  0.00     0.158 HD
ATOM     54  H   UNL     1     -46.540  25.011  27.681  1.00  0.00     0.158 HD
ENDBRANCH  48  52
ENDBRANCH  31  40
BRANCH  34  55
ATOM     55  O   UNL     1     -49.648  29.113  22.486  1.00  0.00    -0.388 OA
ATOM     56  H   UNL     1     -49.296  28.417  21.888  1.00  0.00     0.211 HD
ENDBRANCH  34  55
ENDBRANCH   1  27
TORSDOF 9
ENDMDL
MODEL 4
REMARK VINA RESULT:      -8.6      4.983     10.810
REMARK SMILES CN(C[C@H]1C[C@@H](n2ccc3c(N)ncnc32)[C@H](O)[C@@H]1O)c1ccc2ccc(N)nc2c1
REMARK SMILES IDX 3 1 2 4 1 5 21 9 22 10 31 11 23 12 30 14 24 16 29 18 25 19
REMARK SMILES IDX 27 20 26 21 28 24 4 27 5 28 19 29 6 31 17 34 20 38 7 40 8 41
REMARK SMILES IDX 16 42 9 43 10 45 15 46 11 48 14 49 13 50 12 52 18 55
REMARK H PARENT 3 2 3 3 1 6 1 7 1 8 22 13 31 15 23 17 25 22 26 23 28 25 28 26
REMARK H PARENT 4 30 5 32 5 33 19 35 6 36 17 37 20 39 8 44 9 47 14 51 12 53
REMARK H PARENT 12 54 18 56
REMARK Flexibility Score: inf
ROOT
ATOM      1  C   UNL     1     -47.547  31.052  23.920  1.00  0.00     0.023 C 
ATOM      2  H   UNL     1     -46.790  31.791  23.638  1.00  0.00     0.050 H 
ATOM      3  H   UNL     1     -47.003  30.123  24.141  1.00  0.00     0.050 H 
ENDROOT
BRANCH   1   4
ATOM      4  N   UNL     1     -48.269  31.490  25.137  1.00  0.00    -0.374 N 
BRANCH   4   5
ATOM      5  C   UNL     1     -48.379  30.493  26.209  1.00  0.00     0.006 C 
ATOM      6  H   UNL     1     -48.723  29.526  25.825  1.00  0.00     0.046 H 
ATOM      7  H   UNL     1     -49.086  30.826  26.974  1.00  0.00     0.046 H 
ATOM      8  H   UNL     1     -47.424  30.362  26.731  1.00  0.00     0.046 H 
ENDBRANCH   4   5
BRANCH   4   9
ATOM      9  C   UNL     1     -47.903  32.797  25.539  1.00  0.00     0.039 A 
ATOM     10  C   UNL     1     -46.662  33.376  25.246  1.00  0.00    -0.038 A 
ATOM     11  C   UNL     1     -48.803  33.574  26.296  1.00  0.00    -0.012 A 
ATOM     12  C   UNL     1     -46.345  34.667  25.676  1.00  0.00    -0.051 A 
ATOM     13  H   UNL     1     -45.915  32.847  24.662  1.00  0.00     0.064 H 
ATOM     14  C   UNL     1     -48.522  34.864  26.738  1.00  0.00     0.075 A 
ATOM     15  H   UNL     1     -49.764  33.158  26.579  1.00  0.00     0.067 H 
ATOM     16  C   UNL     1     -47.269  35.414  26.418  1.00  0.00     0.000 A 
ATOM     17  H   UNL     1     -45.371  35.084  25.425  1.00  0.00     0.063 H 
ATOM     18  N   UNL     1     -49.446  35.540  27.448  1.00  0.00    -0.231 NA
ATOM     19  C   UNL     1     -46.987  36.708  26.868  1.00  0.00    -0.049 A 
ATOM     20  C   UNL     1     -49.154  36.784  27.862  1.00  0.00     0.124 A 
ATOM     21  C   UNL     1     -47.942  37.400  27.603  1.00  0.00    -0.019 A 
ATOM     22  H   UNL     1     -46.029  37.176  26.658  1.00  0.00     0.063 H 
ATOM     23  H   UNL     1     -47.736  38.398  27.974  1.00  0.00     0.066 H 
BRANCH  20  24
ATOM     24  N   UNL     1     -50.133  37.436  28.606  1.00  0.00    -0.384 N 
ATOM     25  H   UNL     1     -50.405  38.258  28.072  1.00  0.00     0.158 HD
ATOM     26  H   UNL     1     -49.796  37.682  29.529  1.00  0.00     0.158 HD
ENDBRANCH  20  24
ENDBRANCH   4   9
ENDBRANCH   1   4
BRANCH   1  27
ATOM     27  C   UNL     1     -48.473  30.807  22.714  1.00  0.00     0.007 C 
ATOM     28  C   UNL     1     -48.660  29.323  22.349  1.00  0.00    -0.022 C 
ATOM     29  C   UNL     1     -49.903  31.252  23.018  1.00  0.00     0.086 C 
ATOM     30  H   UNL     1     -48.089  31.347  21.840  1.00  0.00     0.035 H 
ATOM     31  C   UNL     1     -49.889  28.818  23.136  1.00  0.00     0.064 C 
ATOM     32  H   UNL     1     -48.909  29.271  21.280  1.00  0.00     0.029 H 
ATOM     33  H   UNL     1     -47.751  28.731  22.460  1.00  0.00     0.029 H 
ATOM     34  C   UNL     1     -50.506  30.075  23.789  1.00  0.00     0.101 C 
ATOM     35  H   UNL     1     -49.965  32.192  23.576  1.00  0.00     0.063 H 
ATOM     36  H   UNL     1     -50.593  28.374  22.416  1.00  0.00     0.056 H 
ATOM     37  H   UNL     1     -50.249  30.146  24.853  1.00  0.00     0.065 H 
BRANCH  29  38
ATOM     38  O   UNL     1     -50.616  31.429  21.790  1.00  0.00    -0.390 OA
ATOM     39  H   UNL     1     -51.560  31.466  22.053  1.00  0.00     0.211 HD
ENDBRANCH  29  38
BRANCH  31  40
ATOM     40  N   UNL     1     -49.670  27.769  24.128  1.00  0.00    -0.327 N 
ATOM     41  C   UNL     1     -50.601  27.118  24.895  1.00  0.00     0.007 A 
ATOM     42  C   UNL     1     -48.416  27.275  24.428  1.00  0.00     0.145 A 
ATOM     43  C   UNL     1     -49.940  26.211  25.699  1.00  0.00    -0.031 A 
ATOM     44  H   UNL     1     -51.660  27.328  24.831  1.00  0.00     0.082 H 
ATOM     45  C   UNL     1     -48.554  26.304  25.409  1.00  0.00     0.061 A 
ATOM     46  N   UNL     1     -47.264  27.667  23.849  1.00  0.00    -0.218 NA
ATOM     47  H   UNL     1     -50.411  25.553  26.417  1.00  0.00     0.065 H 
ATOM     48  C   UNL     1     -47.381  25.681  25.852  1.00  0.00     0.136 A 
ATOM     49  C   UNL     1     -46.209  27.006  24.364  1.00  0.00     0.120 A 
ATOM     50  N   UNL     1     -46.204  26.047  25.309  1.00  0.00    -0.219 NA
ATOM     51  H   UNL     1     -45.236  27.275  23.963  1.00  0.00     0.106 H 
BRANCH  48  52
ATOM     52  N   UNL     1     -47.357  24.684  26.817  1.00  0.00    -0.383 N 
ATOM     53  H   UNL     1     -46.542  24.686  27.414  1.00  0.00     0.158 HD
ATOM     54  H   UNL     1     -48.257  24.601  27.274  1.00  0.00     0.158 HD
ENDBRANCH  48  52
ENDBRANCH  31  40
BRANCH  34  55
ATOM     55  O   UNL     1     -51.931  30.110  23.674  1.00  0.00    -0.388 OA
ATOM     56  H   UNL     1     -52.274  29.623  24.455  1.00  0.00     0.211 HD
ENDBRANCH  34  55
ENDBRANCH   1  27
TORSDOF 9
ENDMDL
MODEL 5
REMARK VINA RESULT:      -8.6      2.039      2.666
REMARK SMILES CN(C[C@H]1C[C@@H](n2ccc3c(N)ncnc32)[C@H](O)[C@@H]1O)c1ccc2ccc(N)nc2c1
REMARK SMILES IDX 3 1 2 4 1 5 21 9 22 10 31 11 23 12 30 14 24 16 29 18 25 19
REMARK SMILES IDX 27 20 26 21 28 24 4 27 5 28 19 29 6 31 17 34 20 38 7 40 8 41
REMARK SMILES IDX 16 42 9 43 10 45 15 46 11 48 14 49 13 50 12 52 18 55
REMARK H PARENT 3 2 3 3 1 6 1 7 1 8 22 13 31 15 23 17 25 22 26 23 28 25 28 26
REMARK H PARENT 4 30 5 32 5 33 19 35 6 36 17 37 20 39 8 44 9 47 14 51 12 53
REMARK H PARENT 12 54 18 56
REMARK Flexibility Score: inf
ROOT
ATOM      1  C   UNL     1     -46.185  36.833  27.148  1.00  0.00     0.023 C 
ATOM      2  H   UNL     1     -45.213  37.279  26.914  1.00  0.00     0.050 H 
ATOM      3  H   UNL     1     -46.757  36.830  26.210  1.00  0.00     0.050 H 
ENDROOT
BRANCH   1   4
ATOM      4  N   UNL     1     -46.015  35.437  27.614  1.00  0.00    -0.374 N 
BRANCH   4   5
ATOM      5  C   UNL     1     -46.073  35.235  29.067  1.00  0.00     0.006 C 
ATOM      6  H   UNL     1     -46.952  34.650  29.357  1.00  0.00     0.046 H 
ATOM      7  H   UNL     1     -46.118  36.197  29.588  1.00  0.00     0.046 H 
ATOM      8  H   UNL     1     -45.166  34.744  29.438  1.00  0.00     0.046 H 
ENDBRANCH   4   5
BRANCH   4   9
ATOM      9  C   UNL     1     -46.749  34.514  26.829  1.00  0.00     0.039 A 
ATOM     10  C   UNL     1     -48.146  34.416  26.859  1.00  0.00    -0.038 A 
ATOM     11  C   UNL     1     -46.067  33.618  25.982  1.00  0.00    -0.012 A 
ATOM     12  C   UNL     1     -48.822  33.480  26.072  1.00  0.00    -0.051 A 
ATOM     13  H   UNL     1     -48.746  35.074  27.480  1.00  0.00     0.064 H 
ATOM     14  C   UNL     1     -46.708  32.676  25.183  1.00  0.00     0.075 A 
ATOM     15  H   UNL     1     -44.982  33.631  25.950  1.00  0.00     0.067 H 
ATOM     16  C   UNL     1     -48.111  32.612  25.233  1.00  0.00     0.000 A 
ATOM     17  H   UNL     1     -49.909  33.436  26.119  1.00  0.00     0.063 H 
ATOM     18  N   UNL     1     -45.978  31.865  24.393  1.00  0.00    -0.231 NA
ATOM     19  C   UNL     1     -48.753  31.661  24.434  1.00  0.00    -0.049 A 
ATOM     20  C   UNL     1     -46.619  30.966  23.628  1.00  0.00     0.124 A 
ATOM     21  C   UNL     1     -47.996  30.824  23.623  1.00  0.00    -0.019 A 
ATOM     22  H   UNL     1     -49.836  31.562  24.443  1.00  0.00     0.063 H 
ATOM     23  H   UNL     1     -48.474  30.070  23.008  1.00  0.00     0.066 H 
BRANCH  20  24
ATOM     24  N   UNL     1     -45.821  30.139  22.842  1.00  0.00    -0.384 N 
ATOM     25  H   UNL     1     -46.213  30.163  21.903  1.00  0.00     0.158 HD
ATOM     26  H   UNL     1     -45.786  29.196  23.210  1.00  0.00     0.158 HD
ENDBRANCH  20  24
ENDBRANCH   4   9
ENDBRANCH   1   4
BRANCH   1  27
ATOM     27  C   UNL     1     -46.909  37.733  28.166  1.00  0.00     0.007 C 
ATOM     28  C   UNL     1     -46.020  38.825  28.792  1.00  0.00    -0.022 C 
ATOM     29  C   UNL     1     -48.008  38.554  27.492  1.00  0.00     0.086 C 
ATOM     30  H   UNL     1     -47.336  37.116  28.965  1.00  0.00     0.035 H 
ATOM     31  C   UNL     1     -46.150  40.077  27.899  1.00  0.00     0.064 C 
ATOM     32  H   UNL     1     -46.442  39.075  29.775  1.00  0.00     0.029 H 
ATOM     33  H   UNL     1     -45.002  38.492  28.995  1.00  0.00     0.029 H 
ATOM     34  C   UNL     1     -47.266  39.746  26.883  1.00  0.00     0.101 C 
ATOM     35  H   UNL     1     -48.584  37.995  26.747  1.00  0.00     0.063 H 
ATOM     36  H   UNL     1     -46.451  40.920  28.538  1.00  0.00     0.056 H 
ATOM     37  H   UNL     1     -46.855  39.477  25.902  1.00  0.00     0.065 H 
BRANCH  29  38
ATOM     38  O   UNL     1     -48.926  39.023  28.485  1.00  0.00    -0.390 OA
ATOM     39  H   UNL     1     -48.557  38.702  29.335  1.00  0.00     0.211 HD
ENDBRANCH  29  38
BRANCH  31  40
ATOM     40  N   UNL     1     -44.947  40.546  27.217  1.00  0.00    -0.327 N 
ATOM     41  C   UNL     1     -44.789  40.855  25.890  1.00  0.00     0.007 A 
ATOM     42  C   UNL     1     -43.748  40.749  27.871  1.00  0.00     0.145 A 
ATOM     43  C   UNL     1     -43.481  41.247  25.691  1.00  0.00    -0.031 A 
ATOM     44  H   UNL     1     -45.596  40.783  25.174  1.00  0.00     0.082 H 
ATOM     45  C   UNL     1     -42.814  41.183  26.942  1.00  0.00     0.061 A 
ATOM     46  N   UNL     1     -43.539  40.568  29.190  1.00  0.00    -0.218 NA
ATOM     47  H   UNL     1     -43.055  41.548  24.743  1.00  0.00     0.065 H 
ATOM     48  C   UNL     1     -41.523  41.444  27.418  1.00  0.00     0.136 A 
ATOM     49  C   UNL     1     -42.262  40.840  29.523  1.00  0.00     0.120 A 
ATOM     50  N   UNL     1     -41.264  41.267  28.728  1.00  0.00    -0.219 NA
ATOM     51  H   UNL     1     -42.004  40.702  30.569  1.00  0.00     0.106 H 
BRANCH  48  52
ATOM     52  N   UNL     1     -40.484  41.895  26.617  1.00  0.00    -0.383 N 
ATOM     53  H   UNL     1     -40.389  41.418  25.731  1.00  0.00     0.158 HD
ATOM     54  H   UNL     1     -40.458  42.907  26.594  1.00  0.00     0.158 HD
ENDBRANCH  48  52
ENDBRANCH  31  40
BRANCH  34  55
ATOM     55  O   UNL     1     -48.180  40.831  26.698  1.00  0.00    -0.388 OA
ATOM     56  H   UNL     1     -48.964  40.445  26.248  1.00  0.00     0.211 HD
ENDBRANCH  34  55
ENDBRANCH   1  27
TORSDOF 9
ENDMDL
MODEL 6
REMARK VINA RESULT:      -8.5      1.438      2.073
REMARK SMILES CN(C[C@H]1C[C@@H](n2ccc3c(N)ncnc32)[C@H](O)[C@@H]1O)c1ccc2ccc(N)nc2c1
REMARK SMILES IDX 3 1 2 4 1 5 21 9 22 10 31 11 23 12 30 14 24 16 29 18 25 19
REMARK SMILES IDX 27 20 26 21 28 24 4 27 5 28 19 29 6 31 17 34 20 38 7 40 8 41
REMARK SMILES IDX 16 42 9 43 10 45 15 46 11 48 14 49 13 50 12 52 18 55
REMARK H PARENT 3 2 3 3 1 6 1 7 1 8 22 13 31 15 23 17 25 22 26 23 28 25 28 26
REMARK H PARENT 4 30 5 32 5 33 19 35 6 36 17 37 20 39 8 44 9 47 14 51 12 53
REMARK H PARENT 12 54 18 56
REMARK Flexibility Score: inf
ROOT
ATOM      1  C   UNL     1     -47.934  37.464  28.032  1.00  0.00     0.023 C 
ATOM      2  H   UNL     1     -47.680  37.694  26.993  1.00  0.00     0.050 H 
ATOM      3  H   UNL     1     -48.004  38.429  28.553  1.00  0.00     0.050 H 
ENDROOT
BRANCH   1   4
ATOM      4  N   UNL     1     -49.246  36.779  28.105  1.00  0.00    -0.374 N 
BRANCH   4   5
ATOM      5  C   UNL     1     -50.426  37.646  28.000  1.00  0.00     0.006 C 
ATOM      6  H   UNL     1     -50.503  38.325  28.857  1.00  0.00     0.046 H 
ATOM      7  H   UNL     1     -51.341  37.048  27.958  1.00  0.00     0.046 H 
ATOM      8  H   UNL     1     -50.413  38.227  27.071  1.00  0.00     0.046 H 
ENDBRANCH   4   5
BRANCH   4   9
ATOM      9  C   UNL     1     -49.277  35.592  27.333  1.00  0.00     0.039 A 
ATOM     10  C   UNL     1     -50.460  34.925  26.992  1.00  0.00    -0.038 A 
ATOM     11  C   UNL     1     -48.071  35.014  26.891  1.00  0.00    -0.012 A 
ATOM     12  C   UNL     1     -50.435  33.749  26.237  1.00  0.00    -0.051 A 
ATOM     13  H   UNL     1     -51.431  35.308  27.288  1.00  0.00     0.064 H 
ATOM     14  C   UNL     1     -48.009  33.846  26.135  1.00  0.00     0.075 A 
ATOM     15  H   UNL     1     -47.125  35.474  27.159  1.00  0.00     0.067 H 
ATOM     16  C   UNL     1     -49.217  33.209  25.806  1.00  0.00     0.000 A 
ATOM     17  H   UNL     1     -51.376  33.260  25.987  1.00  0.00     0.063 H 
ATOM     18  N   UNL     1     -46.811  33.368  25.745  1.00  0.00    -0.231 NA
ATOM     19  C   UNL     1     -49.153  32.032  25.051  1.00  0.00    -0.049 A 
ATOM     20  C   UNL     1     -46.777  32.242  25.014  1.00  0.00     0.124 A 
ATOM     21  C   UNL     1     -47.915  31.541  24.653  1.00  0.00    -0.019 A 
ATOM     22  H   UNL     1     -50.056  31.494  24.777  1.00  0.00     0.063 H 
ATOM     23  H   UNL     1     -47.843  30.623  24.082  1.00  0.00     0.066 H 
BRANCH  20  24
ATOM     24  N   UNL     1     -45.516  31.778  24.649  1.00  0.00    -0.384 N 
ATOM     25  H   UNL     1     -45.666  31.022  23.985  1.00  0.00     0.158 HD
ATOM     26  H   UNL     1     -44.985  31.471  25.455  1.00  0.00     0.158 HD
ENDBRANCH  20  24
ENDBRANCH   4   9
ENDBRANCH   1   4
BRANCH   1  27
ATOM     27  C   UNL     1     -46.784  36.650  28.653  1.00  0.00     0.007 C 
ATOM     28  C   UNL     1     -45.400  36.940  28.043  1.00  0.00    -0.022 C 
ATOM     29  C   UNL     1     -46.577  37.020  30.122  1.00  0.00     0.086 C 
ATOM     30  H   UNL     1     -47.001  35.579  28.561  1.00  0.00     0.035 H 
ATOM     31  C   UNL     1     -44.771  38.078  28.874  1.00  0.00     0.064 C 
ATOM     32  H   UNL     1     -44.778  36.045  28.185  1.00  0.00     0.029 H 
ATOM     33  H   UNL     1     -45.427  37.100  26.964  1.00  0.00     0.029 H 
ATOM     34  C   UNL     1     -45.724  38.290  30.072  1.00  0.00     0.101 C 
ATOM     35  H   UNL     1     -47.509  37.165  30.677  1.00  0.00     0.063 H 
ATOM     36  H   UNL     1     -43.785  37.738  29.223  1.00  0.00     0.056 H 
ATOM     37  H   UNL     1     -46.362  39.171  29.932  1.00  0.00     0.065 H 
BRANCH  29  38
ATOM     38  O   UNL     1     -45.842  35.980  30.773  1.00  0.00    -0.390 OA
ATOM     39  H   UNL     1     -45.685  35.310  30.074  1.00  0.00     0.211 HD
ENDBRANCH  29  38
BRANCH  31  40
ATOM     40  N   UNL     1     -44.503  39.342  28.193  1.00  0.00    -0.327 N 
ATOM     41  C   UNL     1     -45.102  39.843  27.066  1.00  0.00     0.007 A 
ATOM     42  C   UNL     1     -43.552  40.241  28.633  1.00  0.00     0.145 A 
ATOM     43  C   UNL     1     -44.525  41.063  26.776  1.00  0.00    -0.031 A 
ATOM     44  H   UNL     1     -45.889  39.318  26.542  1.00  0.00     0.082 H 
ATOM     45  C   UNL     1     -43.541  41.323  27.766  1.00  0.00     0.061 A 
ATOM     46  N   UNL     1     -42.783  40.089  29.730  1.00  0.00    -0.218 NA
ATOM     47  H   UNL     1     -44.789  41.697  25.940  1.00  0.00     0.065 H 
ATOM     48  C   UNL     1     -42.632  42.351  28.047  1.00  0.00     0.136 A 
ATOM     49  C   UNL     1     -41.946  41.133  29.887  1.00  0.00     0.120 A 
ATOM     50  N   UNL     1     -41.836  42.238  29.127  1.00  0.00    -0.219 NA
ATOM     51  H   UNL     1     -41.276  41.081  30.741  1.00  0.00     0.106 H 
BRANCH  48  52
ATOM     52  N   UNL     1     -42.512  43.502  27.282  1.00  0.00    -0.383 N 
ATOM     53  H   UNL     1     -43.245  44.184  27.418  1.00  0.00     0.158 HD
ATOM     54  H   UNL     1     -41.560  43.848  27.294  1.00  0.00     0.158 HD
ENDBRANCH  48  52
ENDBRANCH  31  40
BRANCH  34  55
ATOM     55  O   UNL     1     -45.024  38.442  31.310  1.00  0.00    -0.388 OA
ATOM     56  H   UNL     1     -44.814  37.530  31.611  1.00  0.00     0.211 HD
ENDBRANCH  34  55
ENDBRANCH   1  27
TORSDOF 9
ENDMDL
MODEL 7
REMARK VINA RESULT:      -8.4      3.723     10.885
REMARK SMILES CN(C[C@H]1C[C@@H](n2ccc3c(N)ncnc32)[C@H](O)[C@@H]1O)c1ccc2ccc(N)nc2c1
REMARK SMILES IDX 3 1 2 4 1 5 21 9 22 10 31 11 23 12 30 14 24 16 29 18 25 19
REMARK SMILES IDX 27 20 26 21 28 24 4 27 5 28 19 29 6 31 17 34 20 38 7 40 8 41
REMARK SMILES IDX 16 42 9 43 10 45 15 46 11 48 14 49 13 50 12 52 18 55
REMARK H PARENT 3 2 3 3 1 6 1 7 1 8 22 13 31 15 23 17 25 22 26 23 28 25 28 26
REMARK H PARENT 4 30 5 32 5 33 19 35 6 36 17 37 20 39 8 44 9 47 14 51 12 53
REMARK H PARENT 12 54 18 56
REMARK Flexibility Score: inf
ROOT
ATOM      1  C   UNL     1     -48.413  31.830  25.467  1.00  0.00     0.023 C 
ATOM      2  H   UNL     1     -48.367  30.853  25.958  1.00  0.00     0.050 H 
ATOM      3  H   UNL     1     -49.305  32.333  25.866  1.00  0.00     0.050 H 
ENDROOT
BRANCH   1   4
ATOM      4  N   UNL     1     -47.215  32.635  25.803  1.00  0.00    -0.374 N 
BRANCH   4   5
ATOM      5  C   UNL     1     -46.138  32.624  24.806  1.00  0.00     0.006 C 
ATOM      6  H   UNL     1     -46.468  32.176  23.862  1.00  0.00     0.046 H 
ATOM      7  H   UNL     1     -45.280  32.051  25.172  1.00  0.00     0.046 H 
ATOM      8  H   UNL     1     -45.757  33.635  24.619  1.00  0.00     0.046 H 
ENDBRANCH   4   5
BRANCH   4   9
ATOM      9  C   UNL     1     -47.551  33.902  26.340  1.00  0.00     0.039 A 
ATOM     10  C   UNL     1     -48.867  34.311  26.589  1.00  0.00    -0.038 A 
ATOM     11  C   UNL     1     -46.532  34.831  26.629  1.00  0.00    -0.012 A 
ATOM     12  C   UNL     1     -49.145  35.577  27.110  1.00  0.00    -0.051 A 
ATOM     13  H   UNL     1     -49.709  33.653  26.399  1.00  0.00     0.064 H 
ATOM     14  C   UNL     1     -46.772  36.098  27.153  1.00  0.00     0.075 A 
ATOM     15  H   UNL     1     -45.497  34.575  26.422  1.00  0.00     0.067 H 
ATOM     16  C   UNL     1     -48.105  36.471  27.395  1.00  0.00     0.000 A 
ATOM     17  H   UNL     1     -50.181  35.858  27.294  1.00  0.00     0.063 H 
ATOM     18  N   UNL     1     -45.736  36.920  27.410  1.00  0.00    -0.231 NA
ATOM     19  C   UNL     1     -48.345  37.747  27.916  1.00  0.00    -0.049 A 
ATOM     20  C   UNL     1     -45.992  38.137  27.917  1.00  0.00     0.124 A 
ATOM     21  C   UNL     1     -47.273  38.592  28.176  1.00  0.00    -0.019 A 
ATOM     22  H   UNL     1     -49.358  38.089  28.112  1.00  0.00     0.063 H 
ATOM     23  H   UNL     1     -47.439  39.591  28.565  1.00  0.00     0.066 H 
BRANCH  20  24
ATOM     24  N   UNL     1     -44.890  38.956  28.150  1.00  0.00    -0.384 N 
ATOM     25  H   UNL     1     -45.091  39.479  29.000  1.00  0.00     0.158 HD
ATOM     26  H   UNL     1     -44.711  39.570  27.365  1.00  0.00     0.158 HD
ENDBRANCH  20  24
ENDBRANCH   4   9
ENDBRANCH   1   4
BRANCH   1  27
ATOM     27  C   UNL     1     -48.602  31.615  23.954  1.00  0.00     0.007 C 
ATOM     28  C   UNL     1     -48.135  30.238  23.447  1.00  0.00    -0.022 C 
ATOM     29  C   UNL     1     -50.083  31.617  23.577  1.00  0.00     0.086 C 
ATOM     30  H   UNL     1     -48.072  32.400  23.403  1.00  0.00     0.035 H 
ATOM     31  C   UNL     1     -49.354  29.293  23.527  1.00  0.00     0.064 C 
ATOM     32  H   UNL     1     -47.870  30.345  22.386  1.00  0.00     0.029 H 
ATOM     33  H   UNL     1     -47.227  29.881  23.933  1.00  0.00     0.029 H 
ATOM     34  C   UNL     1     -50.553  30.195  23.894  1.00  0.00     0.101 C 
ATOM     35  H   UNL     1     -50.672  32.378  24.101  1.00  0.00     0.063 H 
ATOM     36  H   UNL     1     -49.501  28.845  22.533  1.00  0.00     0.056 H 
ATOM     37  H   UNL     1     -50.815  30.109  24.956  1.00  0.00     0.065 H 
BRANCH  29  38
ATOM     38  O   UNL     1     -50.215  31.859  22.173  1.00  0.00    -0.390 OA
ATOM     39  H   UNL     1     -49.428  32.395  21.939  1.00  0.00     0.211 HD
ENDBRANCH  29  38
BRANCH  31  40
ATOM     40  N   UNL     1     -49.264  28.152  24.433  1.00  0.00    -0.327 N 
ATOM     41  C   UNL     1     -50.246  27.616  25.225  1.00  0.00     0.007 A 
ATOM     42  C   UNL     1     -48.101  27.428  24.610  1.00  0.00     0.145 A 
ATOM     43  C   UNL     1     -49.709  26.552  25.921  1.00  0.00    -0.031 A 
ATOM     44  H   UNL     1     -51.254  28.010  25.251  1.00  0.00     0.082 H 
ATOM     45  C   UNL     1     -48.349  26.425  25.536  1.00  0.00     0.061 A 
ATOM     46  N   UNL     1     -46.935  27.657  23.974  1.00  0.00    -0.218 NA
ATOM     47  H   UNL     1     -50.244  25.933  26.629  1.00  0.00     0.065 H 
ATOM     48  C   UNL     1     -47.279  25.578  25.853  1.00  0.00     0.136 A 
ATOM     49  C   UNL     1     -45.985  26.787  24.369  1.00  0.00     0.120 A 
ATOM     50  N   UNL     1     -46.092  25.775  25.249  1.00  0.00    -0.219 NA
ATOM     51  H   UNL     1     -45.006  26.913  23.914  1.00  0.00     0.106 H 
BRANCH  48  52
ATOM     52  N   UNL     1     -47.374  24.523  26.750  1.00  0.00    -0.383 N 
ATOM     53  H   UNL     1     -48.264  24.045  26.755  1.00  0.00     0.158 HD
ATOM     54  H   UNL     1     -46.545  23.943  26.714  1.00  0.00     0.158 HD
ENDBRANCH  48  52
ENDBRANCH  31  40
BRANCH  34  55
ATOM     55  O   UNL     1     -51.720  29.897  23.124  1.00  0.00    -0.388 OA
ATOM     56  H   UNL     1     -52.080  29.062  23.497  1.00  0.00     0.211 HD
ENDBRANCH  34  55
ENDBRANCH   1  27
TORSDOF 9
ENDMDL
