MODEL 1
REMARK VINA RESULT:     -10.0      0.000      0.000
REMARK SMILES Cc1ccn(-c2cn([C@@H]3O[C@H](COc4ccc5ccc(N6CCC6)nc5c4)[C@@H](O)[C@@H]3F)c3ncnc(N)c23)n1
REMARK SMILES IDX 9 1 10 2 11 3 28 4 30 5 31 6 8 11 6 12 7 13 38 14 32 16
REMARK SMILES IDX 36 17 33 18 35 19 34 20 5 22 2 23 3 24 39 25 4 26 1 29 37 33
REMARK SMILES IDX 12 36 13 39 14 40 15 41 27 42 16 43 26 45 17 47 25 49 18 50
REMARK SMILES IDX 20 51 19 52 21 55 22 56 24 57 23 58 29 65
REMARK H PARENT 9 7 11 8 28 9 30 10 7 15 34 21 3 27 4 28 1 30 1 31 1 32 37 34
REMARK H PARENT 37 35 12 37 12 38 15 44 27 46 16 48 18 53 19 54 22 59 22 60
REMARK H PARENT 24 61 24 62 23 63 23 64 29 66
REMARK Flexibility Score: inf
ROOT
ATOM      1  C   UNL     1     -45.458  38.225  28.999  1.00  0.00     0.170 C 
ATOM      2  O   UNL     1     -45.299  37.091  28.107  1.00  0.00    -0.345 OA
ATOM      3  C   UNL     1     -46.604  36.505  27.912  1.00  0.00     0.123 C 
ATOM      4  C   UNL     1     -47.586  37.645  28.119  1.00  0.00     0.119 C 
ATOM      5  C   UNL     1     -46.951  38.372  29.286  1.00  0.00     0.173 C 
ATOM      6  F   UNL     1     -47.389  39.652  29.304  1.00  0.00    -0.239 F 
ATOM      7  H   UNL     1     -44.895  38.002  29.912  1.00  0.00     0.088 H 
ATOM      8  H   UNL     1     -46.730  35.734  28.682  1.00  0.00     0.067 H 
ATOM      9  H   UNL     1     -47.638  38.303  27.244  1.00  0.00     0.066 H 
ATOM     10  H   UNL     1     -47.223  37.905  30.238  1.00  0.00     0.074 H 
ENDROOT
BRANCH   1  11
ATOM     11  N   UNL     1     -44.853  39.399  28.385  1.00  0.00    -0.301 N 
ATOM     12  C   UNL     1     -44.415  41.119  27.034  1.00  0.00     0.096 A 
ATOM     13  C   UNL     1     -45.290  40.072  27.270  1.00  0.00     0.035 A 
ATOM     14  C   UNL     1     -43.426  41.105  28.072  1.00  0.00     0.087 A 
ATOM     15  H   UNL     1     -46.160  39.729  26.725  1.00  0.00     0.084 H 
ATOM     16  C   UNL     1     -43.716  39.999  28.865  1.00  0.00     0.149 A 
ATOM     17  C   UNL     1     -42.310  41.865  28.467  1.00  0.00     0.138 A 
ATOM     18  N   UNL     1     -43.026  39.571  29.936  1.00  0.00    -0.218 NA
ATOM     19  N   UNL     1     -41.577  41.455  29.523  1.00  0.00    -0.219 NA
ATOM     20  C   UNL     1     -41.969  40.356  30.189  1.00  0.00     0.120 A 
ATOM     21  H   UNL     1     -41.354  40.073  31.038  1.00  0.00     0.106 H 
BRANCH  12  22
ATOM     22  N   UNL     1     -44.492  42.024  25.932  1.00  0.00    -0.238 N 
ATOM     23  C   UNL     1     -43.909  43.206  24.240  1.00  0.00     0.060 A 
ATOM     24  C   UNL     1     -45.290  43.418  24.395  1.00  0.00    -0.021 A 
ATOM     25  N   UNL     1     -43.428  42.360  25.156  1.00  0.00    -0.173 NA
ATOM     26  C   UNL     1     -45.639  42.648  25.477  1.00  0.00     0.031 A 
ATOM     27  H   UNL     1     -45.944  44.042  23.803  1.00  0.00     0.066 H 
ATOM     28  H   UNL     1     -46.591  42.493  25.961  1.00  0.00     0.084 H 
BRANCH  23  29
ATOM     29  C   UNL     1     -43.004  43.793  23.221  1.00  0.00    -0.020 C 
ATOM     30  H   UNL     1     -42.541  43.003  22.619  1.00  0.00     0.030 H 
ATOM     31  H   UNL     1     -43.550  44.459  22.545  1.00  0.00     0.030 H 
ATOM     32  H   UNL     1     -42.210  44.373  23.701  1.00  0.00     0.030 H 
ENDBRANCH  23  29
ENDBRANCH  12  22
BRANCH  17  33
ATOM     33  N   UNL     1     -41.903  43.035  27.850  1.00  0.00    -0.383 N 
ATOM     34  H   UNL     1     -41.563  43.725  28.503  1.00  0.00     0.158 HD
ATOM     35  H   UNL     1     -41.370  42.892  26.988  1.00  0.00     0.158 HD
ENDBRANCH  17  33
ENDBRANCH   1  11
BRANCH   3  36
ATOM     36  C   UNL     1     -46.722  35.885  26.518  1.00  0.00     0.117 C 
ATOM     37  H   UNL     1     -46.727  36.631  25.716  1.00  0.00     0.073 H 
ATOM     38  H   UNL     1     -45.850  35.246  26.338  1.00  0.00     0.073 H 
BRANCH  36  39
ATOM     39  O   UNL     1     -47.856  35.014  26.432  1.00  0.00    -0.491 OA
BRANCH  39  40
ATOM     40  C   UNL     1     -47.725  33.825  25.771  1.00  0.00     0.121 A 
ATOM     41  C   UNL     1     -46.435  33.564  25.311  1.00  0.00    -0.019 A 
ATOM     42  C   UNL     1     -48.734  32.887  25.539  1.00  0.00     0.007 A 
ATOM     43  C   UNL     1     -46.157  32.384  24.625  1.00  0.00    -0.049 A 
ATOM     44  H   UNL     1     -45.641  34.286  25.490  1.00  0.00     0.066 H 
ATOM     45  C   UNL     1     -48.484  31.699  24.858  1.00  0.00     0.076 A 
ATOM     46  H   UNL     1     -49.750  33.043  25.884  1.00  0.00     0.069 H 
ATOM     47  C   UNL     1     -47.179  31.451  24.396  1.00  0.00     0.001 A 
ATOM     48  H   UNL     1     -45.145  32.200  24.272  1.00  0.00     0.063 H 
ATOM     49  N   UNL     1     -49.493  30.832  24.666  1.00  0.00    -0.231 NA
ATOM     50  C   UNL     1     -46.945  30.256  23.710  1.00  0.00    -0.049 A 
ATOM     51  C   UNL     1     -49.258  29.673  24.007  1.00  0.00     0.129 A 
ATOM     52  C   UNL     1     -47.994  29.364  23.513  1.00  0.00    -0.019 A 
ATOM     53  H   UNL     1     -45.959  30.015  23.325  1.00  0.00     0.063 H 
ATOM     54  H   UNL     1     -47.824  28.442  22.969  1.00  0.00     0.066 H 
BRANCH  51  55
ATOM     55  N   UNL     1     -50.329  28.784  23.802  1.00  0.00    -0.356 N 
ATOM     56  C   UNL     1     -50.630  27.619  24.581  1.00  0.00     0.021 C 
ATOM     57  C   UNL     1     -51.708  29.183  23.743  1.00  0.00     0.021 C 
ATOM     58  C   UNL     1     -52.050  27.713  24.011  1.00  0.00    -0.018 C 
ATOM     59  H   UNL     1     -50.059  26.735  24.286  1.00  0.00     0.049 H 
ATOM     60  H   UNL     1     -50.552  27.792  25.659  1.00  0.00     0.049 H 
ATOM     61  H   UNL     1     -52.007  29.572  22.767  1.00  0.00     0.049 H 
ATOM     62  H   UNL     1     -51.991  29.875  24.542  1.00  0.00     0.049 H 
ATOM     63  H   UNL     1     -52.861  27.533  24.720  1.00  0.00     0.030 H 
ATOM     64  H   UNL     1     -52.215  27.115  23.107  1.00  0.00     0.030 H 
ENDBRANCH  51  55
ENDBRANCH  39  40
ENDBRANCH  36  39
ENDBRANCH   3  36
BRANCH   4  65
ATOM     65  O   UNL     1     -48.894  37.176  28.409  1.00  0.00    -0.387 OA
ATOM     66  H   UNL     1     -49.317  36.955  27.557  1.00  0.00     0.211 HD
ENDBRANCH   4  65
TORSDOF 9
ENDMDL
MODEL 2
REMARK VINA RESULT:      -9.5      2.513      3.741
REMARK SMILES Cc1ccn(-c2cn([C@@H]3O[C@H](COc4ccc5ccc(N6CCC6)nc5c4)[C@@H](O)[C@@H]3F)c3ncnc(N)c23)n1
REMARK SMILES IDX 9 1 10 2 11 3 28 4 30 5 31 6 8 11 6 12 7 13 38 14 32 16
REMARK SMILES IDX 36 17 33 18 35 19 34 20 5 22 2 23 3 24 39 25 4 26 1 29 37 33
REMARK SMILES IDX 12 36 13 39 14 40 15 41 27 42 16 43 26 45 17 47 25 49 18 50
REMARK SMILES IDX 20 51 19 52 21 55 22 56 24 57 23 58 29 65
REMARK H PARENT 9 7 11 8 28 9 30 10 7 15 34 21 3 27 4 28 1 30 1 31 1 32 37 34
REMARK H PARENT 37 35 12 37 12 38 15 44 27 46 16 48 18 53 19 54 22 59 22 60
REMARK H PARENT 24 61 24 62 23 63 23 64 29 66
REMARK Flexibility Score: inf
ROOT
ATOM      1  C   UNL     1     -45.371  37.602  27.889  1.00  0.00     0.170 C 
ATOM      2  O   UNL     1     -45.786  36.487  27.057  1.00  0.00    -0.345 OA
ATOM      3  C   UNL     1     -46.060  35.372  27.930  1.00  0.00     0.123 C 
ATOM      4  C   UNL     1     -46.458  35.995  29.257  1.00  0.00     0.119 C 
ATOM      5  C   UNL     1     -45.483  37.150  29.343  1.00  0.00     0.173 C 
ATOM      6  F   UNL     1     -45.980  38.090  30.180  1.00  0.00    -0.239 F 
ATOM      7  H   UNL     1     -44.335  37.839  27.622  1.00  0.00     0.088 H 
ATOM      8  H   UNL     1     -45.129  34.801  28.028  1.00  0.00     0.067 H 
ATOM      9  H   UNL     1     -47.489  36.366  29.240  1.00  0.00     0.066 H 
ATOM     10  H   UNL     1     -44.515  36.822  29.736  1.00  0.00     0.074 H 
ENDROOT
BRANCH   1  11
ATOM     11  N   UNL     1     -46.186  38.765  27.564  1.00  0.00    -0.301 N 
ATOM     12  C   UNL     1     -47.895  40.176  27.318  1.00  0.00     0.096 A 
ATOM     13  C   UNL     1     -47.531  38.926  27.789  1.00  0.00     0.035 A 
ATOM     14  C   UNL     1     -46.714  40.817  26.821  1.00  0.00     0.087 A 
ATOM     15  H   UNL     1     -48.115  38.129  28.232  1.00  0.00     0.084 H 
ATOM     16  C   UNL     1     -45.685  39.890  26.959  1.00  0.00     0.149 A 
ATOM     17  C   UNL     1     -46.350  42.055  26.260  1.00  0.00     0.138 A 
ATOM     18  N   UNL     1     -44.403  40.045  26.586  1.00  0.00    -0.218 NA
ATOM     19  N   UNL     1     -45.078  42.242  25.850  1.00  0.00    -0.219 NA
ATOM     20  C   UNL     1     -44.191  41.250  26.036  1.00  0.00     0.120 A 
ATOM     21  H   UNL     1     -43.178  41.452  25.700  1.00  0.00     0.106 H 
BRANCH  12  22
ATOM     22  N   UNL     1     -49.223  40.701  27.318  1.00  0.00    -0.238 N 
ATOM     23  C   UNL     1     -50.958  41.817  26.730  1.00  0.00     0.060 A 
ATOM     24  C   UNL     1     -51.347  41.074  27.859  1.00  0.00    -0.021 A 
ATOM     25  N   UNL     1     -49.685  41.586  26.396  1.00  0.00    -0.173 NA
ATOM     26  C   UNL     1     -50.225  40.366  28.212  1.00  0.00     0.031 A 
ATOM     27  H   UNL     1     -52.310  41.054  28.350  1.00  0.00     0.066 H 
ATOM     28  H   UNL     1     -50.050  39.664  29.012  1.00  0.00     0.084 H 
BRANCH  23  29
ATOM     29  C   UNL     1     -51.778  42.761  25.932  1.00  0.00    -0.020 C 
ATOM     30  H   UNL     1     -51.439  42.777  24.891  1.00  0.00     0.030 H 
ATOM     31  H   UNL     1     -52.834  42.473  25.941  1.00  0.00     0.030 H 
ATOM     32  H   UNL     1     -51.699  43.775  26.337  1.00  0.00     0.030 H 
ENDBRANCH  23  29
ENDBRANCH  12  22
BRANCH  17  33
ATOM     33  N   UNL     1     -47.212  43.127  26.104  1.00  0.00    -0.383 N 
ATOM     34  H   UNL     1     -46.797  44.006  26.375  1.00  0.00     0.158 HD
ATOM     35  H   UNL     1     -47.758  43.104  25.240  1.00  0.00     0.158 HD
ENDBRANCH  17  33
ENDBRANCH   1  11
BRANCH   3  36
ATOM     36  C   UNL     1     -47.165  34.484  27.352  1.00  0.00     0.117 C 
ATOM     37  H   UNL     1     -47.250  33.518  27.864  1.00  0.00     0.073 H 
ATOM     38  H   UNL     1     -48.130  34.986  27.484  1.00  0.00     0.073 H 
BRANCH  36  39
ATOM     39  O   UNL     1     -47.012  34.318  25.938  1.00  0.00    -0.491 OA
BRANCH  39  40
ATOM     40  C   UNL     1     -47.128  33.064  25.406  1.00  0.00     0.121 A 
ATOM     41  C   UNL     1     -46.329  32.841  24.286  1.00  0.00    -0.019 A 
ATOM     42  C   UNL     1     -47.941  32.031  25.880  1.00  0.00     0.007 A 
ATOM     43  C   UNL     1     -46.344  31.604  23.644  1.00  0.00    -0.049 A 
ATOM     44  H   UNL     1     -45.691  33.637  23.910  1.00  0.00     0.066 H 
ATOM     45  C   UNL     1     -47.974  30.786  25.262  1.00  0.00     0.076 A 
ATOM     46  H   UNL     1     -48.574  32.156  26.753  1.00  0.00     0.069 H 
ATOM     47  C   UNL     1     -47.166  30.575  24.130  1.00  0.00     0.001 A 
ATOM     48  H   UNL     1     -45.716  31.450  22.771  1.00  0.00     0.063 H 
ATOM     49  N   UNL     1     -48.773  29.828  25.763  1.00  0.00    -0.231 NA
ATOM     50  C   UNL     1     -47.214  29.320  23.517  1.00  0.00    -0.049 A 
ATOM     51  C   UNL     1     -48.809  28.613  25.169  1.00  0.00     0.129 A 
ATOM     52  C   UNL     1     -48.045  28.335  24.040  1.00  0.00    -0.019 A 
ATOM     53  H   UNL     1     -46.617  29.104  22.636  1.00  0.00     0.063 H 
ATOM     54  H   UNL     1     -48.098  27.364  23.561  1.00  0.00     0.066 H 
BRANCH  51  55
ATOM     55  N   UNL     1     -49.662  27.627  25.700  1.00  0.00    -0.356 N 
ATOM     56  C   UNL     1     -50.759  26.996  25.026  1.00  0.00     0.021 C 
ATOM     57  C   UNL     1     -49.208  26.388  26.266  1.00  0.00     0.021 C 
ATOM     58  C   UNL     1     -50.640  25.878  26.069  1.00  0.00    -0.018 C 
ATOM     59  H   UNL     1     -51.684  27.575  25.055  1.00  0.00     0.049 H 
ATOM     60  H   UNL     1     -50.517  26.698  24.000  1.00  0.00     0.049 H 
ATOM     61  H   UNL     1     -48.873  26.479  27.302  1.00  0.00     0.049 H 
ATOM     62  H   UNL     1     -48.453  25.885  25.653  1.00  0.00     0.049 H 
ATOM     63  H   UNL     1     -50.736  24.859  25.688  1.00  0.00     0.030 H 
ATOM     64  H   UNL     1     -51.290  26.005  26.943  1.00  0.00     0.030 H 
ENDBRANCH  51  55
ENDBRANCH  39  40
ENDBRANCH  36  39
ENDBRANCH   3  36
BRANCH   4  65
ATOM     65  O   UNL     1     -46.326  35.081  30.335  1.00  0.00    -0.387 OA
ATOM     66  H   UNL     1     -47.012  35.308  30.992  1.00  0.00     0.211 HD
ENDBRANCH   4  65
TORSDOF 9
ENDMDL
MODEL 3
REMARK VINA RESULT:      -9.4      2.998     12.309
REMARK SMILES Cc1ccn(-c2cn([C@@H]3O[C@H](COc4ccc5ccc(N6CCC6)nc5c4)[C@@H](O)[C@@H]3F)c3ncnc(N)c23)n1
REMARK SMILES IDX 9 1 10 2 11 3 28 4 30 5 31 6 8 11 6 12 7 13 38 14 32 16
REMARK SMILES IDX 36 17 33 18 35 19 34 20 5 22 2 23 3 24 39 25 4 26 1 29 37 33
REMARK SMILES IDX 12 36 13 39 14 40 15 41 27 42 16 43 26 45 17 47 25 49 18 50
REMARK SMILES IDX 20 51 19 52 21 55 22 56 24 57 23 58 29 65
REMARK H PARENT 9 7 11 8 28 9 30 10 7 15 34 21 3 27 4 28 1 30 1 31 1 32 37 34
REMARK H PARENT 37 35 12 37 12 38 15 44 27 46 16 48 18 53 19 54 22 59 22 60
REMARK H PARENT 24 61 24 62 23 63 23 64 29 66
REMARK Flexibility Score: inf
ROOT
ATOM      1  C   UNL     1     -47.859  31.732  24.031  1.00  0.00     0.170 C 
ATOM      2  O   UNL     1     -46.780  32.483  24.646  1.00  0.00    -0.345 OA
ATOM      3  C   UNL     1     -47.369  33.383  25.608  1.00  0.00     0.123 C 
ATOM      4  C   UNL     1     -48.661  32.712  26.040  1.00  0.00     0.119 C 
ATOM      5  C   UNL     1     -49.155  32.150  24.723  1.00  0.00     0.173 C 
ATOM      6  F   UNL     1     -50.008  31.128  24.967  1.00  0.00    -0.239 F 
ATOM      7  H   UNL     1     -47.872  31.993  22.967  1.00  0.00     0.088 H 
ATOM      8  H   UNL     1     -47.573  34.326  25.086  1.00  0.00     0.067 H 
ATOM      9  H   UNL     1     -48.481  31.902  26.756  1.00  0.00     0.066 H 
ATOM     10  H   UNL     1     -49.691  32.909  24.145  1.00  0.00     0.074 H 
ENDROOT
BRANCH   1  11
ATOM     11  N   UNL     1     -47.564  30.309  24.132  1.00  0.00    -0.301 N 
ATOM     12  C   UNL     1     -47.627  28.145  24.670  1.00  0.00     0.096 A 
ATOM     13  C   UNL     1     -48.258  29.366  24.849  1.00  0.00     0.035 A 
ATOM     14  C   UNL     1     -46.527  28.350  23.775  1.00  0.00     0.087 A 
ATOM     15  H   UNL     1     -49.114  29.648  25.449  1.00  0.00     0.084 H 
ATOM     16  C   UNL     1     -46.504  29.713  23.497  1.00  0.00     0.149 A 
ATOM     17  C   UNL     1     -45.527  27.582  23.151  1.00  0.00     0.138 A 
ATOM     18  N   UNL     1     -45.615  30.365  22.729  1.00  0.00    -0.218 NA
ATOM     19  N   UNL     1     -44.600  28.202  22.390  1.00  0.00    -0.219 NA
ATOM     20  C   UNL     1     -44.695  29.532  22.220  1.00  0.00     0.120 A 
ATOM     21  H   UNL     1     -43.934  29.983  21.592  1.00  0.00     0.106 H 
BRANCH  12  22
ATOM     22  N   UNL     1     -48.011  26.921  25.296  1.00  0.00    -0.238 N 
ATOM     23  C   UNL     1     -47.880  25.076  26.383  1.00  0.00     0.060 A 
ATOM     24  C   UNL     1     -49.242  25.242  26.075  1.00  0.00    -0.021 A 
ATOM     25  N   UNL     1     -47.139  26.090  25.925  1.00  0.00    -0.173 NA
ATOM     26  C   UNL     1     -49.300  26.429  25.388  1.00  0.00     0.031 A 
ATOM     27  H   UNL     1     -50.069  24.590  26.320  1.00  0.00     0.066 H 
ATOM     28  H   UNL     1     -50.134  26.960  24.957  1.00  0.00     0.084 H 
BRANCH  23  29
ATOM     29  C   UNL     1     -47.240  23.960  27.121  1.00  0.00    -0.020 C 
ATOM     30  H   UNL     1     -46.189  23.862  26.831  1.00  0.00     0.030 H 
ATOM     31  H   UNL     1     -47.281  24.126  28.202  1.00  0.00     0.030 H 
ATOM     32  H   UNL     1     -47.748  23.015  26.903  1.00  0.00     0.030 H 
ENDBRANCH  23  29
ENDBRANCH  12  22
BRANCH  17  33
ATOM     33  N   UNL     1     -45.424  26.205  23.247  1.00  0.00    -0.383 N 
ATOM     34  H   UNL     1     -44.941  25.792  22.463  1.00  0.00     0.158 HD
ATOM     35  H   UNL     1     -45.189  25.865  24.183  1.00  0.00     0.158 HD
ENDBRANCH  17  33
ENDBRANCH   1  11
BRANCH   3  36
ATOM     36  C   UNL     1     -46.420  33.624  26.784  1.00  0.00     0.117 C 
ATOM     37  H   UNL     1     -46.051  32.696  27.234  1.00  0.00     0.073 H 
ATOM     38  H   UNL     1     -45.536  34.162  26.423  1.00  0.00     0.073 H 
BRANCH  36  39
ATOM     39  O   UNL     1     -47.015  34.482  27.764  1.00  0.00    -0.491 OA
BRANCH  39  40
ATOM     40  C   UNL     1     -46.841  35.833  27.649  1.00  0.00     0.121 A 
ATOM     41  C   UNL     1     -47.964  36.519  27.190  1.00  0.00    -0.019 A 
ATOM     42  C   UNL     1     -45.680  36.550  27.951  1.00  0.00     0.007 A 
ATOM     43  C   UNL     1     -47.928  37.903  27.030  1.00  0.00    -0.049 A 
ATOM     44  H   UNL     1     -48.873  35.971  26.955  1.00  0.00     0.066 H 
ATOM     45  C   UNL     1     -45.617  37.932  27.804  1.00  0.00     0.076 A 
ATOM     46  H   UNL     1     -44.784  36.060  28.318  1.00  0.00     0.069 H 
ATOM     47  C   UNL     1     -46.756  38.611  27.336  1.00  0.00     0.001 A 
ATOM     48  H   UNL     1     -48.813  38.419  26.669  1.00  0.00     0.063 H 
ATOM     49  N   UNL     1     -44.475  38.570  28.112  1.00  0.00    -0.231 NA
ATOM     50  C   UNL     1     -46.675  39.999  27.188  1.00  0.00    -0.049 A 
ATOM     51  C   UNL     1     -44.406  39.915  27.974  1.00  0.00     0.129 A 
ATOM     52  C   UNL     1     -45.489  40.652  27.508  1.00  0.00    -0.019 A 
ATOM     53  H   UNL     1     -47.522  40.574  26.824  1.00  0.00     0.063 H 
ATOM     54  H   UNL     1     -45.414  41.726  27.382  1.00  0.00     0.066 H 
BRANCH  51  55
ATOM     55  N   UNL     1     -43.197  40.564  28.288  1.00  0.00    -0.356 N 
ATOM     56  C   UNL     1     -42.921  41.964  28.153  1.00  0.00     0.021 C 
ATOM     57  C   UNL     1     -42.553  40.492  29.570  1.00  0.00     0.021 C 
ATOM     58  C   UNL     1     -41.776  41.745  29.148  1.00  0.00    -0.018 C 
ATOM     59  H   UNL     1     -42.622  42.257  27.144  1.00  0.00     0.049 H 
ATOM     60  H   UNL     1     -43.736  42.599  28.518  1.00  0.00     0.049 H 
ATOM     61  H   UNL     1     -41.958  39.587  29.709  1.00  0.00     0.049 H 
ATOM     62  H   UNL     1     -43.243  40.639  30.408  1.00  0.00     0.049 H 
ATOM     63  H   UNL     1     -41.658  42.513  29.915  1.00  0.00     0.030 H 
ATOM     64  H   UNL     1     -40.805  41.539  28.682  1.00  0.00     0.030 H 
ENDBRANCH  51  55
ENDBRANCH  39  40
ENDBRANCH  36  39
ENDBRANCH   3  36
BRANCH   4  65
ATOM     65  O   UNL     1     -49.572  33.632  26.622  1.00  0.00    -0.387 OA
ATOM     66  H   UNL     1     -49.623  34.404  26.026  1.00  0.00     0.211 HD
ENDBRANCH   4  65
TORSDOF 9
ENDMDL
MODEL 4
REMARK VINA RESULT:      -8.7      2.756      5.007
REMARK SMILES Cc1ccn(-c2cn([C@@H]3O[C@H](COc4ccc5ccc(N6CCC6)nc5c4)[C@@H](O)[C@@H]3F)c3ncnc(N)c23)n1
REMARK SMILES IDX 9 1 10 2 11 3 28 4 30 5 31 6 8 11 6 12 7 13 38 14 32 16
REMARK SMILES IDX 36 17 33 18 35 19 34 20 5 22 2 23 3 24 39 25 4 26 1 29 37 33
REMARK SMILES IDX 12 36 13 39 14 40 15 41 27 42 16 43 26 45 17 47 25 49 18 50
REMARK SMILES IDX 20 51 19 52 21 55 22 56 24 57 23 58 29 65
REMARK H PARENT 9 7 11 8 28 9 30 10 7 15 34 21 3 27 4 28 1 30 1 31 1 32 37 34
REMARK H PARENT 37 35 12 37 12 38 15 44 27 46 16 48 18 53 19 54 22 59 22 60
REMARK H PARENT 24 61 24 62 23 63 23 64 29 66
REMARK Flexibility Score: inf
ROOT
ATOM      1  C   UNL     1     -44.218  41.093  26.061  1.00  0.00     0.170 C 
ATOM      2  O   UNL     1     -44.935  39.831  26.084  1.00  0.00    -0.345 OA
ATOM      3  C   UNL     1     -44.609  39.168  27.324  1.00  0.00     0.123 C 
ATOM      4  C   UNL     1     -44.268  40.286  28.294  1.00  0.00     0.119 C 
ATOM      5  C   UNL     1     -43.490  41.225  27.397  1.00  0.00     0.173 C 
ATOM      6  F   UNL     1     -43.520  42.472  27.924  1.00  0.00    -0.239 F 
ATOM      7  H   UNL     1     -43.513  41.051  25.223  1.00  0.00     0.088 H 
ATOM      8  H   UNL     1     -43.735  38.535  27.132  1.00  0.00     0.067 H 
ATOM      9  H   UNL     1     -45.167  40.783  28.677  1.00  0.00     0.066 H 
ATOM     10  H   UNL     1     -42.442  40.917  27.315  1.00  0.00     0.074 H 
ENDROOT
BRANCH   1  11
ATOM     11  N   UNL     1     -45.161  42.169  25.789  1.00  0.00    -0.301 N 
ATOM     12  C   UNL     1     -46.989  43.446  25.732  1.00  0.00     0.096 A 
ATOM     13  C   UNL     1     -46.457  42.269  26.233  1.00  0.00     0.035 A 
ATOM     14  C   UNL     1     -45.961  44.106  24.984  1.00  0.00     0.087 A 
ATOM     15  H   UNL     1     -46.896  41.484  26.835  1.00  0.00     0.084 H 
ATOM     16  C   UNL     1     -44.856  43.260  25.016  1.00  0.00     0.149 A 
ATOM     17  C   UNL     1     -45.791  45.306  24.268  1.00  0.00     0.138 A 
ATOM     18  N   UNL     1     -43.671  43.456  24.412  1.00  0.00    -0.218 NA
ATOM     19  N   UNL     1     -44.624  45.529  23.627  1.00  0.00    -0.219 NA
ATOM     20  C   UNL     1     -43.647  44.614  23.736  1.00  0.00     0.120 A 
ATOM     21  H   UNL     1     -42.724  44.844  23.212  1.00  0.00     0.106 H 
BRANCH  12  22
ATOM     22  N   UNL     1     -48.333  43.887  25.922  1.00  0.00    -0.238 N 
ATOM     23  C   UNL     1     -50.466  44.017  25.733  1.00  0.00     0.060 A 
ATOM     24  C   UNL     1     -50.107  44.988  26.685  1.00  0.00    -0.021 A 
ATOM     25  N   UNL     1     -49.402  43.346  25.280  1.00  0.00    -0.173 NA
ATOM     26  C   UNL     1     -48.743  44.880  26.793  1.00  0.00     0.031 A 
ATOM     27  H   UNL     1     -50.751  45.670  27.222  1.00  0.00     0.066 H 
ATOM     28  H   UNL     1     -48.034  45.419  27.401  1.00  0.00     0.084 H 
BRANCH  23  29
ATOM     29  C   UNL     1     -51.822  43.692  25.227  1.00  0.00    -0.020 C 
ATOM     30  H   UNL     1     -52.509  44.525  25.409  1.00  0.00     0.030 H 
ATOM     31  H   UNL     1     -51.805  43.494  24.150  1.00  0.00     0.030 H 
ATOM     32  H   UNL     1     -52.216  42.802  25.729  1.00  0.00     0.030 H 
ENDBRANCH  23  29
ENDBRANCH  12  22
BRANCH  17  33
ATOM     33  N   UNL     1     -46.745  46.304  24.178  1.00  0.00    -0.383 N 
ATOM     34  H   UNL     1     -46.977  46.707  25.073  1.00  0.00     0.158 HD
ATOM     35  H   UNL     1     -46.612  46.942  23.389  1.00  0.00     0.158 HD
ENDBRANCH  17  33
ENDBRANCH   1  11
BRANCH   3  36
ATOM     36  C   UNL     1     -45.782  38.315  27.813  1.00  0.00     0.117 C 
ATOM     37  H   UNL     1     -46.223  38.687  28.745  1.00  0.00     0.073 H 
ATOM     38  H   UNL     1     -46.581  38.346  27.063  1.00  0.00     0.073 H 
BRANCH  36  39
ATOM     39  O   UNL     1     -45.412  36.936  27.920  1.00  0.00    -0.491 OA
BRANCH  39  40
ATOM     40  C   UNL     1     -46.248  35.988  27.402  1.00  0.00     0.121 A 
ATOM     41  C   UNL     1     -47.600  36.213  27.658  1.00  0.00    -0.019 A 
ATOM     42  C   UNL     1     -45.873  34.865  26.660  1.00  0.00     0.007 A 
ATOM     43  C   UNL     1     -48.564  35.327  27.183  1.00  0.00    -0.049 A 
ATOM     44  H   UNL     1     -47.903  37.085  28.231  1.00  0.00     0.066 H 
ATOM     45  C   UNL     1     -46.815  33.964  26.171  1.00  0.00     0.076 A 
ATOM     46  H   UNL     1     -44.834  34.652  26.429  1.00  0.00     0.069 H 
ATOM     47  C   UNL     1     -48.175  34.202  26.440  1.00  0.00     0.001 A 
ATOM     48  H   UNL     1     -49.613  35.518  27.395  1.00  0.00     0.063 H 
ATOM     49  N   UNL     1     -46.397  32.903  25.461  1.00  0.00    -0.231 NA
ATOM     50  C   UNL     1     -49.108  33.286  25.947  1.00  0.00    -0.049 A 
ATOM     51  C   UNL     1     -47.307  32.023  24.980  1.00  0.00     0.129 A 
ATOM     52  C   UNL     1     -48.668  32.188  25.215  1.00  0.00    -0.019 A 
ATOM     53  H   UNL     1     -50.171  33.415  26.131  1.00  0.00     0.063 H 
ATOM     54  H   UNL     1     -49.385  31.466  24.841  1.00  0.00     0.066 H 
BRANCH  51  55
ATOM     55  N   UNL     1     -46.849  30.910  24.251  1.00  0.00    -0.356 N 
ATOM     56  C   UNL     1     -47.645  29.816  23.776  1.00  0.00     0.021 C 
ATOM     57  C   UNL     1     -46.116  30.999  23.019  1.00  0.00     0.021 C 
ATOM     58  C   UNL     1     -46.510  29.537  22.784  1.00  0.00    -0.018 C 
ATOM     59  H   UNL     1     -47.819  29.042  24.527  1.00  0.00     0.049 H 
ATOM     60  H   UNL     1     -48.587  30.138  23.321  1.00  0.00     0.049 H 
ATOM     61  H   UNL     1     -45.049  31.189  23.160  1.00  0.00     0.049 H 
ATOM     62  H   UNL     1     -46.549  31.712  22.310  1.00  0.00     0.049 H 
ATOM     63  H   UNL     1     -46.817  29.283  21.767  1.00  0.00     0.030 H 
ATOM     64  H   UNL     1     -45.771  28.807  23.137  1.00  0.00     0.030 H 
ENDBRANCH  51  55
ENDBRANCH  39  40
ENDBRANCH  36  39
ENDBRANCH   3  36
BRANCH   4  65
ATOM     65  O   UNL     1     -43.506  39.821  29.397  1.00  0.00    -0.387 OA
ATOM     66  H   UNL     1     -43.667  40.433  30.140  1.00  0.00     0.211 HD
ENDBRANCH   4  65
TORSDOF 9
ENDMDL
MODEL 5
REMARK VINA RESULT:      -8.6      2.777     12.336
REMARK SMILES Cc1ccn(-c2cn([C@@H]3O[C@H](COc4ccc5ccc(N6CCC6)nc5c4)[C@@H](O)[C@@H]3F)c3ncnc(N)c23)n1
REMARK SMILES IDX 9 1 10 2 11 3 28 4 30 5 31 6 8 11 6 12 7 13 38 14 32 16
REMARK SMILES IDX 36 17 33 18 35 19 34 20 5 22 2 23 3 24 39 25 4 26 1 29 37 33
REMARK SMILES IDX 12 36 13 39 14 40 15 41 27 42 16 43 26 45 17 47 25 49 18 50
REMARK SMILES IDX 20 51 19 52 21 55 22 56 24 57 23 58 29 65
REMARK H PARENT 9 7 11 8 28 9 30 10 7 15 34 21 3 27 4 28 1 30 1 31 1 32 37 34
REMARK H PARENT 37 35 12 37 12 38 15 44 27 46 16 48 18 53 19 54 22 59 22 60
REMARK H PARENT 24 61 24 62 23 63 23 64 29 66
REMARK Flexibility Score: inf
ROOT
ATOM      1  C   UNL     1     -48.219  32.414  24.061  1.00  0.00     0.170 C 
ATOM      2  O   UNL     1     -47.001  32.801  24.750  1.00  0.00    -0.345 OA
ATOM      3  C   UNL     1     -47.383  33.572  25.909  1.00  0.00     0.123 C 
ATOM      4  C   UNL     1     -48.773  33.081  26.271  1.00  0.00     0.119 C 
ATOM      5  C   UNL     1     -49.393  32.914  24.901  1.00  0.00     0.173 C 
ATOM      6  F   UNL     1     -50.426  32.043  24.982  1.00  0.00    -0.239 F 
ATOM      7  H   UNL     1     -48.200  32.891  23.075  1.00  0.00     0.088 H 
ATOM      8  H   UNL     1     -47.406  34.625  25.602  1.00  0.00     0.067 H 
ATOM      9  H   UNL     1     -48.743  32.119  26.796  1.00  0.00     0.066 H 
ATOM     10  H   UNL     1     -49.780  33.865  24.522  1.00  0.00     0.074 H 
ENDROOT
BRANCH   1  11
ATOM     11  N   UNL     1     -48.208  30.972  23.853  1.00  0.00    -0.301 N 
ATOM     12  C   UNL     1     -47.826  28.785  24.062  1.00  0.00     0.096 A 
ATOM     13  C   UNL     1     -47.584  30.026  24.628  1.00  0.00     0.035 A 
ATOM     14  C   UNL     1     -48.665  28.983  22.917  1.00  0.00     0.087 A 
ATOM     15  H   UNL     1     -46.997  30.318  25.489  1.00  0.00     0.084 H 
ATOM     16  C   UNL     1     -48.846  30.358  22.805  1.00  0.00     0.149 A 
ATOM     17  C   UNL     1     -49.306  28.201  21.940  1.00  0.00     0.138 A 
ATOM     18  N   UNL     1     -49.534  31.007  21.850  1.00  0.00    -0.218 NA
ATOM     19  N   UNL     1     -49.988  28.814  20.949  1.00  0.00    -0.219 NA
ATOM     20  C   UNL     1     -50.067  30.156  20.960  1.00  0.00     0.120 A 
ATOM     21  H   UNL     1     -50.635  30.602  20.150  1.00  0.00     0.106 H 
BRANCH  12  22
ATOM     22  N   UNL     1     -47.302  27.546  24.541  1.00  0.00    -0.238 N 
ATOM     23  C   UNL     1     -47.127  25.713  25.641  1.00  0.00     0.060 A 
ATOM     24  C   UNL     1     -46.001  25.763  24.800  1.00  0.00    -0.021 A 
ATOM     25  N   UNL     1     -47.917  26.779  25.480  1.00  0.00    -0.173 NA
ATOM     26  C   UNL     1     -46.140  26.938  24.104  1.00  0.00     0.031 A 
ATOM     27  H   UNL     1     -45.199  25.043  24.710  1.00  0.00     0.066 H 
ATOM     28  H   UNL     1     -45.519  27.393  23.348  1.00  0.00     0.084 H 
BRANCH  23  29
ATOM     29  C   UNL     1     -47.492  24.658  26.617  1.00  0.00    -0.020 C 
ATOM     30  H   UNL     1     -47.304  25.000  27.640  1.00  0.00     0.030 H 
ATOM     31  H   UNL     1     -48.551  24.394  26.537  1.00  0.00     0.030 H 
ATOM     32  H   UNL     1     -46.902  23.752  26.442  1.00  0.00     0.030 H 
ENDBRANCH  23  29
ENDBRANCH  12  22
BRANCH  17  33
ATOM     33  N   UNL     1     -49.304  26.817  21.920  1.00  0.00    -0.383 N 
ATOM     34  H   UNL     1     -49.991  26.432  21.290  1.00  0.00     0.158 HD
ATOM     35  H   UNL     1     -48.370  26.398  21.919  1.00  0.00     0.158 HD
ENDBRANCH  17  33
ENDBRANCH   1  11
BRANCH   3  36
ATOM     36  C   UNL     1     -46.382  33.376  27.050  1.00  0.00     0.117 C 
ATOM     37  H   UNL     1     -46.383  32.355  27.450  1.00  0.00     0.073 H 
ATOM     38  H   UNL     1     -45.370  33.556  26.671  1.00  0.00     0.073 H 
BRANCH  36  39
ATOM     39  O   UNL     1     -46.579  34.345  28.086  1.00  0.00    -0.491 OA
BRANCH  39  40
ATOM     40  C   UNL     1     -46.365  35.665  27.802  1.00  0.00     0.121 A 
ATOM     41  C   UNL     1     -47.205  36.184  26.818  1.00  0.00    -0.019 A 
ATOM     42  C   UNL     1     -45.418  36.500  28.400  1.00  0.00     0.007 A 
ATOM     43  C   UNL     1     -47.099  37.518  26.433  1.00  0.00    -0.049 A 
ATOM     44  H   UNL     1     -47.947  35.543  26.349  1.00  0.00     0.066 H 
ATOM     45  C   UNL     1     -45.291  37.837  28.037  1.00  0.00     0.076 A 
ATOM     46  H   UNL     1     -44.747  36.143  29.174  1.00  0.00     0.069 H 
ATOM     47  C   UNL     1     -46.143  38.347  27.040  1.00  0.00     0.001 A 
ATOM     48  H   UNL     1     -47.761  37.904  25.663  1.00  0.00     0.063 H 
ATOM     49  N   UNL     1     -44.365  38.595  28.647  1.00  0.00    -0.231 NA
ATOM     50  C   UNL     1     -46.000  39.691  26.683  1.00  0.00    -0.049 A 
ATOM     51  C   UNL     1     -44.237  39.898  28.302  1.00  0.00     0.129 A 
ATOM     52  C   UNL     1     -45.038  40.469  27.318  1.00  0.00    -0.019 A 
ATOM     53  H   UNL     1     -46.626  40.136  25.915  1.00  0.00     0.063 H 
ATOM     54  H   UNL     1     -44.912  41.507  27.036  1.00  0.00     0.066 H 
BRANCH  51  55
ATOM     55  N   UNL     1     -43.251  40.672  28.942  1.00  0.00    -0.356 N 
ATOM     56  C   UNL     1     -42.337  40.224  29.951  1.00  0.00     0.021 C 
ATOM     57  C   UNL     1     -42.232  41.412  28.252  1.00  0.00     0.021 C 
ATOM     58  C   UNL     1     -41.476  41.438  29.585  1.00  0.00    -0.018 C 
ATOM     59  H   UNL     1     -42.759  40.229  30.959  1.00  0.00     0.049 H 
ATOM     60  H   UNL     1     -41.889  39.252  29.721  1.00  0.00     0.049 H 
ATOM     61  H   UNL     1     -42.573  42.380  27.878  1.00  0.00     0.049 H 
ATOM     62  H   UNL     1     -41.745  40.837  27.458  1.00  0.00     0.049 H 
ATOM     63  H   UNL     1     -40.400  41.258  29.527  1.00  0.00     0.030 H 
ATOM     64  H   UNL     1     -41.666  42.328  30.196  1.00  0.00     0.030 H 
ENDBRANCH  51  55
ENDBRANCH  39  40
ENDBRANCH  36  39
ENDBRANCH   3  36
BRANCH   4  65
ATOM     65  O   UNL     1     -49.473  34.013  27.082  1.00  0.00    -0.387 OA
ATOM     66  H   UNL     1     -49.835  33.520  27.843  1.00  0.00     0.211 HD
ENDBRANCH   4  65
TORSDOF 9
ENDMDL
MODEL 6
REMARK VINA RESULT:      -8.6      1.896      2.875
REMARK SMILES Cc1ccn(-c2cn([C@@H]3O[C@H](COc4ccc5ccc(N6CCC6)nc5c4)[C@@H](O)[C@@H]3F)c3ncnc(N)c23)n1
REMARK SMILES IDX 9 1 10 2 11 3 28 4 30 5 31 6 8 11 6 12 7 13 38 14 32 16
REMARK SMILES IDX 36 17 33 18 35 19 34 20 5 22 2 23 3 24 39 25 4 26 1 29 37 33
REMARK SMILES IDX 12 36 13 39 14 40 15 41 27 42 16 43 26 45 17 47 25 49 18 50
REMARK SMILES IDX 20 51 19 52 21 55 22 56 24 57 23 58 29 65
REMARK H PARENT 9 7 11 8 28 9 30 10 7 15 34 21 3 27 4 28 1 30 1 31 1 32 37 34
REMARK H PARENT 37 35 12 37 12 38 15 44 27 46 16 48 18 53 19 54 22 59 22 60
REMARK H PARENT 24 61 24 62 23 63 23 64 29 66
REMARK Flexibility Score: inf
ROOT
ATOM      1  C   UNL     1     -44.807  37.603  28.013  1.00  0.00     0.170 C 
ATOM      2  O   UNL     1     -45.678  36.607  27.417  1.00  0.00    -0.345 OA
ATOM      3  C   UNL     1     -46.193  35.785  28.486  1.00  0.00     0.123 C 
ATOM      4  C   UNL     1     -46.179  36.677  29.715  1.00  0.00     0.119 C 
ATOM      5  C   UNL     1     -44.871  37.415  29.527  1.00  0.00     0.173 C 
ATOM      6  F   UNL     1     -44.908  38.572  30.228  1.00  0.00    -0.239 F 
ATOM      7  H   UNL     1     -43.797  37.422  27.629  1.00  0.00     0.088 H 
ATOM      8  H   UNL     1     -45.503  34.941  28.606  1.00  0.00     0.067 H 
ATOM      9  H   UNL     1     -47.018  37.382  29.717  1.00  0.00     0.066 H 
ATOM     10  H   UNL     1     -44.026  36.823  29.893  1.00  0.00     0.074 H 
ENDROOT
BRANCH   1  11
ATOM     11  N   UNL     1     -45.220  38.925  27.560  1.00  0.00    -0.301 N 
ATOM     12  C   UNL     1     -45.222  41.002  26.747  1.00  0.00     0.096 A 
ATOM     13  C   UNL     1     -44.420  39.909  27.034  1.00  0.00     0.035 A 
ATOM     14  C   UNL     1     -46.572  40.651  27.078  1.00  0.00     0.087 A 
ATOM     15  H   UNL     1     -43.352  39.761  26.940  1.00  0.00     0.084 H 
ATOM     16  C   UNL     1     -46.517  39.368  27.613  1.00  0.00     0.149 A 
ATOM     17  C   UNL     1     -47.852  41.231  27.012  1.00  0.00     0.138 A 
ATOM     18  N   UNL     1     -47.545  38.650  28.097  1.00  0.00    -0.218 NA
ATOM     19  N   UNL     1     -48.908  40.553  27.509  1.00  0.00    -0.219 NA
ATOM     20  C   UNL     1     -48.702  39.323  28.010  1.00  0.00     0.120 A 
ATOM     21  H   UNL     1     -49.583  38.814  28.387  1.00  0.00     0.106 H 
BRANCH  12  22
ATOM     22  N   UNL     1     -44.759  42.251  26.236  1.00  0.00    -0.238 N 
ATOM     23  C   UNL     1     -44.525  43.948  24.943  1.00  0.00     0.060 A 
ATOM     24  C   UNL     1     -43.702  44.199  26.056  1.00  0.00    -0.021 A 
ATOM     25  N   UNL     1     -45.170  42.782  25.054  1.00  0.00    -0.173 NA
ATOM     26  C   UNL     1     -43.874  43.105  26.868  1.00  0.00     0.031 A 
ATOM     27  H   UNL     1     -43.071  45.056  26.244  1.00  0.00     0.066 H 
ATOM     28  H   UNL     1     -43.446  42.859  27.828  1.00  0.00     0.084 H 
BRANCH  23  29
ATOM     29  C   UNL     1     -44.729  44.801  23.748  1.00  0.00    -0.020 C 
ATOM     30  H   UNL     1     -44.691  44.198  22.835  1.00  0.00     0.030 H 
ATOM     31  H   UNL     1     -45.701  45.304  23.783  1.00  0.00     0.030 H 
ATOM     32  H   UNL     1     -43.952  45.570  23.687  1.00  0.00     0.030 H 
ENDBRANCH  23  29
ENDBRANCH  12  22
BRANCH  17  33
ATOM     33  N   UNL     1     -48.122  42.468  26.451  1.00  0.00    -0.383 N 
ATOM     34  H   UNL     1     -48.704  43.046  27.039  1.00  0.00     0.158 HD
ATOM     35  H   UNL     1     -47.318  42.908  25.997  1.00  0.00     0.158 HD
ENDBRANCH  17  33
ENDBRANCH   1  11
BRANCH   3  36
ATOM     36  C   UNL     1     -47.598  35.275  28.156  1.00  0.00     0.117 C 
ATOM     37  H   UNL     1     -47.823  34.309  28.621  1.00  0.00     0.073 H 
ATOM     38  H   UNL     1     -48.335  35.984  28.550  1.00  0.00     0.073 H 
BRANCH  36  39
ATOM     39  O   UNL     1     -47.820  35.242  26.742  1.00  0.00    -0.491 OA
BRANCH  39  40
ATOM     40  C   UNL     1     -47.634  34.064  26.073  1.00  0.00     0.121 A 
ATOM     41  C   UNL     1     -46.530  34.057  25.221  1.00  0.00    -0.019 A 
ATOM     42  C   UNL     1     -48.421  32.915  26.178  1.00  0.00     0.007 A 
ATOM     43  C   UNL     1     -46.219  32.918  24.481  1.00  0.00    -0.049 A 
ATOM     44  H   UNL     1     -45.909  34.945  25.135  1.00  0.00     0.066 H 
ATOM     45  C   UNL     1     -48.133  31.763  25.453  1.00  0.00     0.076 A 
ATOM     46  H   UNL     1     -49.285  32.872  26.833  1.00  0.00     0.069 H 
ATOM     47  C   UNL     1     -47.019  31.771  24.594  1.00  0.00     0.001 A 
ATOM     48  H   UNL     1     -45.356  32.933  23.821  1.00  0.00     0.063 H 
ATOM     49  N   UNL     1     -48.924  30.686  25.595  1.00  0.00    -0.231 NA
ATOM     50  C   UNL     1     -46.745  30.608  23.869  1.00  0.00    -0.049 A 
ATOM     51  C   UNL     1     -48.649  29.561  24.895  1.00  0.00     0.129 A 
ATOM     52  C   UNL     1     -47.569  29.498  24.020  1.00  0.00    -0.019 A 
ATOM     53  H   UNL     1     -45.902  30.560  23.186  1.00  0.00     0.063 H 
ATOM     54  H   UNL     1     -47.372  28.598  23.450  1.00  0.00     0.066 H 
BRANCH  51  55
ATOM     55  N   UNL     1     -49.497  28.448  25.047  1.00  0.00    -0.356 N 
ATOM     56  C   UNL     1     -49.829  27.485  24.038  1.00  0.00     0.021 C 
ATOM     57  C   UNL     1     -49.326  27.436  26.052  1.00  0.00     0.021 C 
ATOM     58  C   UNL     1     -50.231  26.552  25.186  1.00  0.00    -0.018 C 
ATOM     59  H   UNL     1     -50.640  27.803  23.379  1.00  0.00     0.049 H 
ATOM     60  H   UNL     1     -48.960  27.156  23.458  1.00  0.00     0.049 H 
ATOM     61  H   UNL     1     -49.728  27.719  27.028  1.00  0.00     0.049 H 
ATOM     62  H   UNL     1     -48.292  27.087  26.142  1.00  0.00     0.049 H 
ATOM     63  H   UNL     1     -49.923  25.509  25.083  1.00  0.00     0.030 H 
ATOM     64  H   UNL     1     -51.294  26.595  25.452  1.00  0.00     0.030 H 
ENDBRANCH  51  55
ENDBRANCH  39  40
ENDBRANCH  36  39
ENDBRANCH   3  36
BRANCH   4  65
ATOM     65  O   UNL     1     -46.220  35.926  30.919  1.00  0.00    -0.387 OA
ATOM     66  H   UNL     1     -46.585  36.510  31.612  1.00  0.00     0.211 HD
ENDBRANCH   4  65
TORSDOF 9
ENDMDL
MODEL 7
REMARK VINA RESULT:      -8.5      5.106      8.859
REMARK SMILES Cc1ccn(-c2cn([C@@H]3O[C@H](COc4ccc5ccc(N6CCC6)nc5c4)[C@@H](O)[C@@H]3F)c3ncnc(N)c23)n1
REMARK SMILES IDX 9 1 10 2 11 3 28 4 30 5 31 6 8 11 6 12 7 13 38 14 32 16
REMARK SMILES IDX 36 17 33 18 35 19 34 20 5 22 2 23 3 24 39 25 4 26 1 29 37 33
REMARK SMILES IDX 12 36 13 39 14 40 15 41 27 42 16 43 26 45 17 47 25 49 18 50
REMARK SMILES IDX 20 51 19 52 21 55 22 56 24 57 23 58 29 65
REMARK H PARENT 9 7 11 8 28 9 30 10 7 15 34 21 3 27 4 28 1 30 1 31 1 32 37 34
REMARK H PARENT 37 35 12 37 12 38 15 44 27 46 16 48 18 53 19 54 22 59 22 60
REMARK H PARENT 24 61 24 62 23 63 23 64 29 66
REMARK Flexibility Score: inf
ROOT
ATOM      1  C   UNL     1     -46.303  45.318  25.781  1.00  0.00     0.170 C 
ATOM      2  O   UNL     1     -45.272  44.535  25.125  1.00  0.00    -0.345 OA
ATOM      3  C   UNL     1     -44.067  44.656  25.910  1.00  0.00     0.123 C 
ATOM      4  C   UNL     1     -44.542  44.930  27.326  1.00  0.00     0.119 C 
ATOM      5  C   UNL     1     -45.700  45.871  27.071  1.00  0.00     0.173 C 
ATOM      6  F   UNL     1     -46.540  45.841  28.132  1.00  0.00    -0.239 F 
ATOM      7  H   UNL     1     -46.585  46.124  25.094  1.00  0.00     0.088 H 
ATOM      8  H   UNL     1     -43.507  45.512  25.512  1.00  0.00     0.067 H 
ATOM      9  H   UNL     1     -44.894  44.017  27.822  1.00  0.00     0.066 H 
ATOM     10  H   UNL     1     -45.352  46.901  26.942  1.00  0.00     0.074 H 
ENDROOT
BRANCH   1  11
ATOM     11  N   UNL     1     -47.477  44.481  25.984  1.00  0.00    -0.301 N 
ATOM     12  C   UNL     1     -48.975  43.073  26.849  1.00  0.00     0.096 A 
ATOM     13  C   UNL     1     -47.764  43.706  27.081  1.00  0.00     0.035 A 
ATOM     14  C   UNL     1     -49.461  43.512  25.575  1.00  0.00     0.087 A 
ATOM     15  H   UNL     1     -47.072  43.646  27.911  1.00  0.00     0.084 H 
ATOM     16  C   UNL     1     -48.482  44.356  25.058  1.00  0.00     0.149 A 
ATOM     17  C   UNL     1     -50.593  43.320  24.762  1.00  0.00     0.138 A 
ATOM     18  N   UNL     1     -48.494  44.970  23.863  1.00  0.00    -0.218 NA
ATOM     19  N   UNL     1     -50.633  43.901  23.544  1.00  0.00    -0.219 NA
ATOM     20  C   UNL     1     -49.606  44.681  23.170  1.00  0.00     0.120 A 
ATOM     21  H   UNL     1     -49.690  45.135  22.188  1.00  0.00     0.106 H 
BRANCH  12  22
ATOM     22  N   UNL     1     -49.594  42.135  27.730  1.00  0.00    -0.238 N 
ATOM     23  C   UNL     1     -50.457  40.313  28.464  1.00  0.00     0.060 A 
ATOM     24  C   UNL     1     -50.479  41.210  29.547  1.00  0.00    -0.021 A 
ATOM     25  N   UNL     1     -49.915  40.863  27.373  1.00  0.00    -0.173 NA
ATOM     26  C   UNL     1     -49.918  42.362  29.055  1.00  0.00     0.031 A 
ATOM     27  H   UNL     1     -50.850  41.042  30.548  1.00  0.00     0.066 H 
ATOM     28  H   UNL     1     -49.725  43.314  29.524  1.00  0.00     0.084 H 
BRANCH  23  29
ATOM     29  C   UNL     1     -50.941  38.911  28.428  1.00  0.00    -0.020 C 
ATOM     30  H   UNL     1     -51.727  38.796  27.675  1.00  0.00     0.030 H 
ATOM     31  H   UNL     1     -50.130  38.219  28.181  1.00  0.00     0.030 H 
ATOM     32  H   UNL     1     -51.349  38.622  29.402  1.00  0.00     0.030 H 
ENDBRANCH  23  29
ENDBRANCH  12  22
BRANCH  17  33
ATOM     33  N   UNL     1     -51.701  42.575  25.127  1.00  0.00    -0.383 N 
ATOM     34  H   UNL     1     -52.007  41.947  24.399  1.00  0.00     0.158 HD
ATOM     35  H   UNL     1     -51.668  42.215  26.084  1.00  0.00     0.158 HD
ENDBRANCH  17  33
ENDBRANCH   1  11
BRANCH   3  36
ATOM     36  C   UNL     1     -43.223  43.383  25.817  1.00  0.00     0.117 C 
ATOM     37  H   UNL     1     -43.764  42.542  25.370  1.00  0.00     0.073 H 
ATOM     38  H   UNL     1     -42.361  43.575  25.167  1.00  0.00     0.073 H 
BRANCH  36  39
ATOM     39  O   UNL     1     -42.669  43.034  27.091  1.00  0.00    -0.491 OA
BRANCH  39  40
ATOM     40  C   UNL     1     -43.096  41.889  27.703  1.00  0.00     0.121 A 
ATOM     41  C   UNL     1     -42.383  41.553  28.853  1.00  0.00    -0.019 A 
ATOM     42  C   UNL     1     -44.149  41.069  27.291  1.00  0.00     0.007 A 
ATOM     43  C   UNL     1     -42.715  40.412  29.580  1.00  0.00    -0.049 A 
ATOM     44  H   UNL     1     -41.563  42.186  29.184  1.00  0.00     0.066 H 
ATOM     45  C   UNL     1     -44.504  39.925  27.998  1.00  0.00     0.076 A 
ATOM     46  H   UNL     1     -44.737  41.293  26.406  1.00  0.00     0.069 H 
ATOM     47  C   UNL     1     -43.774  39.596  29.155  1.00  0.00     0.001 A 
ATOM     48  H   UNL     1     -42.146  40.166  30.472  1.00  0.00     0.063 H 
ATOM     49  N   UNL     1     -45.528  39.175  27.557  1.00  0.00    -0.231 NA
ATOM     50  C   UNL     1     -44.140  38.442  29.852  1.00  0.00    -0.049 A 
ATOM     51  C   UNL     1     -45.882  38.062  28.241  1.00  0.00     0.129 A 
ATOM     52  C   UNL     1     -45.199  37.669  29.388  1.00  0.00    -0.019 A 
ATOM     53  H   UNL     1     -43.607  38.136  30.748  1.00  0.00     0.063 H 
ATOM     54  H   UNL     1     -45.479  36.765  29.916  1.00  0.00     0.066 H 
BRANCH  51  55
ATOM     55  N   UNL     1     -46.948  37.281  27.756  1.00  0.00    -0.356 N 
ATOM     56  C   UNL     1     -46.913  36.398  26.627  1.00  0.00     0.021 C 
ATOM     57  C   UNL     1     -47.688  36.343  28.552  1.00  0.00     0.021 C 
ATOM     58  C   UNL     1     -48.151  35.724  27.229  1.00  0.00    -0.018 C 
ATOM     59  H   UNL     1     -47.066  36.903  25.670  1.00  0.00     0.049 H 
ATOM     60  H   UNL     1     -46.014  35.774  26.599  1.00  0.00     0.049 H 
ATOM     61  H   UNL     1     -48.468  36.808  29.160  1.00  0.00     0.049 H 
ATOM     62  H   UNL     1     -47.049  35.698  29.164  1.00  0.00     0.049 H 
ATOM     63  H   UNL     1     -48.164  34.632  27.192  1.00  0.00     0.030 H 
ATOM     64  H   UNL     1     -49.105  36.115  26.856  1.00  0.00     0.030 H 
ENDBRANCH  51  55
ENDBRANCH  39  40
ENDBRANCH  36  39
ENDBRANCH   3  36
BRANCH   4  65
ATOM     65  O   UNL     1     -43.525  45.513  28.127  1.00  0.00    -0.387 OA
ATOM     66  H   UNL     1     -42.667  45.246  27.744  1.00  0.00     0.211 HD
ENDBRANCH   4  65
TORSDOF 9
ENDMDL
