MODEL 1
REMARK VINA RESULT:      -9.0      0.000      0.000
REMARK SMILES CCc1cc(NCCN(C)C)c2ccc(OCc3cncc(-n4ccc5c(N)ncnc54)c3)cc2n1
REMARK SMILES IDX 3 1 4 2 5 3 12 4 13 5 14 6 15 7 34 8 35 9 36 10 2 15 1 18
REMARK SMILES IDX 6 22 7 24 8 27 9 30 10 31 11 35 16 39 17 40 18 43 19 44
REMARK SMILES IDX 33 45 20 46 22 48 21 50 23 52 24 53 32 54 25 55 26 57 31 58
REMARK SMILES IDX 27 60 30 61 29 62 28 64
REMARK H PARENT 4 11 13 12 14 13 34 14 2 16 2 17 1 19 1 20 1 21 6 23 7 25 7 26
REMARK H PARENT 8 28 8 29 10 32 10 33 10 34 11 36 11 37 11 38 17 41 17 42
REMARK H PARENT 19 47 33 49 21 51 24 56 25 59 30 63 28 65 28 66
REMARK Flexibility Score: inf
ROOT
ATOM      1  C   UNL     1     -46.290  30.892  22.277  1.00  0.00     0.043 A 
ATOM      2  C   UNL     1     -47.077  29.764  22.472  1.00  0.00    -0.017 A 
ATOM      3  C   UNL     1     -47.888  29.669  23.605  1.00  0.00     0.045 A 
ATOM      4  C   UNL     1     -47.934  30.790  24.483  1.00  0.00     0.024 A 
ATOM      5  C   UNL     1     -48.777  30.872  25.616  1.00  0.00    -0.047 A 
ATOM      6  C   UNL     1     -48.766  31.991  26.448  1.00  0.00    -0.019 A 
ATOM      7  C   UNL     1     -47.917  33.057  26.173  1.00  0.00     0.122 A 
ATOM      8  C   UNL     1     -47.102  32.997  25.044  1.00  0.00     0.007 A 
ATOM      9  C   UNL     1     -47.097  31.892  24.199  1.00  0.00     0.076 A 
ATOM     10  N   UNL     1     -46.291  31.938  23.131  1.00  0.00    -0.253 NA
ATOM     11  H   UNL     1     -47.030  28.971  21.735  1.00  0.00     0.066 H 
ATOM     12  H   UNL     1     -49.468  30.068  25.853  1.00  0.00     0.063 H 
ATOM     13  H   UNL     1     -49.425  32.029  27.312  1.00  0.00     0.066 H 
ATOM     14  H   UNL     1     -46.451  33.821  24.771  1.00  0.00     0.069 H 
ENDROOT
BRANCH   1  15
ATOM     15  C   UNL     1     -45.411  31.010  21.059  1.00  0.00    -0.013 C 
ATOM     16  H   UNL     1     -45.176  30.012  20.672  1.00  0.00     0.033 H 
ATOM     17  H   UNL     1     -44.455  31.465  21.347  1.00  0.00     0.033 H 
BRANCH  15  18
ATOM     18  C   UNL     1     -46.066  31.852  19.976  1.00  0.00    -0.060 C 
ATOM     19  H   UNL     1     -45.319  32.281  19.299  1.00  0.00     0.023 H 
ATOM     20  H   UNL     1     -46.629  32.676  20.426  1.00  0.00     0.023 H 
ATOM     21  H   UNL     1     -46.760  31.254  19.374  1.00  0.00     0.023 H 
ENDBRANCH  15  18
ENDBRANCH   1  15
BRANCH   3  22
ATOM     22  N   UNL     1     -48.723  28.558  23.845  1.00  0.00    -0.383 N 
ATOM     23  H   UNL     1     -49.669  28.756  23.527  1.00  0.00     0.160 HD
BRANCH  22  24
ATOM     24  C   UNL     1     -48.726  27.854  25.132  1.00  0.00     0.027 C 
ATOM     25  H   UNL     1     -48.701  28.554  25.976  1.00  0.00     0.050 H 
ATOM     26  H   UNL     1     -49.686  27.328  25.204  1.00  0.00     0.050 H 
BRANCH  24  27
ATOM     27  C   UNL     1     -47.585  26.816  25.209  1.00  0.00     0.015 C 
ATOM     28  H   UNL     1     -47.102  26.731  24.226  1.00  0.00     0.045 H 
ATOM     29  H   UNL     1     -46.816  27.201  25.890  1.00  0.00     0.045 H 
BRANCH  27  30
ATOM     30  N   UNL     1     -48.015  25.487  25.695  1.00  0.00    -0.308 NA
BRANCH  30  31
ATOM     31  C   UNL     1     -47.228  25.047  26.849  1.00  0.00    -0.014 C 
ATOM     32  H   UNL     1     -46.157  25.195  26.677  1.00  0.00     0.039 H 
ATOM     33  H   UNL     1     -47.361  23.973  27.019  1.00  0.00     0.039 H 
ATOM     34  H   UNL     1     -47.510  25.576  27.767  1.00  0.00     0.039 H 
ENDBRANCH  30  31
BRANCH  30  35
ATOM     35  C   UNL     1     -49.436  25.526  26.056  1.00  0.00    -0.014 C 
ATOM     36  H   UNL     1     -49.930  26.432  25.689  1.00  0.00     0.039 H 
ATOM     37  H   UNL     1     -49.961  24.655  25.649  1.00  0.00     0.039 H 
ATOM     38  H   UNL     1     -49.559  25.481  27.145  1.00  0.00     0.039 H 
ENDBRANCH  30  35
ENDBRANCH  27  30
ENDBRANCH  24  27
ENDBRANCH  22  24
ENDBRANCH   3  22
BRANCH   7  39
ATOM     39  O   UNL     1     -48.004  34.097  27.056  1.00  0.00    -0.489 OA
BRANCH  39  40
ATOM     40  C   UNL     1     -46.827  34.866  27.323  1.00  0.00     0.115 C 
ATOM     41  H   UNL     1     -46.060  34.692  26.558  1.00  0.00     0.076 H 
ATOM     42  H   UNL     1     -46.415  34.480  28.263  1.00  0.00     0.076 H 
BRANCH  40  43
ATOM     43  C   UNL     1     -47.102  36.334  27.525  1.00  0.00     0.010 A 
ATOM     44  C   UNL     1     -48.384  36.756  27.853  1.00  0.00     0.034 A 
ATOM     45  C   UNL     1     -46.126  37.324  27.339  1.00  0.00    -0.028 A 
ATOM     46  N   UNL     1     -48.731  38.048  28.019  1.00  0.00    -0.262 NA
ATOM     47  H   UNL     1     -49.197  36.050  27.996  1.00  0.00     0.084 H 
ATOM     48  C   UNL     1     -46.442  38.681  27.510  1.00  0.00     0.066 A 
ATOM     49  H   UNL     1     -45.132  37.002  27.049  1.00  0.00     0.065 H 
ATOM     50  C   UNL     1     -47.757  38.979  27.849  1.00  0.00     0.051 A 
ATOM     51  H   UNL     1     -48.115  39.987  28.024  1.00  0.00     0.086 H 
BRANCH  48  52
ATOM     52  N   UNL     1     -45.448  39.699  27.350  1.00  0.00    -0.300 N 
ATOM     53  C   UNL     1     -45.412  40.621  26.311  1.00  0.00     0.012 A 
ATOM     54  C   UNL     1     -44.348  39.966  28.171  1.00  0.00     0.150 A 
ATOM     55  C   UNL     1     -44.322  41.446  26.462  1.00  0.00    -0.031 A 
ATOM     56  H   UNL     1     -46.150  40.620  25.523  1.00  0.00     0.082 H 
ATOM     57  C   UNL     1     -43.643  41.039  27.633  1.00  0.00     0.061 A 
ATOM     58  N   UNL     1     -44.013  39.324  29.308  1.00  0.00    -0.218 NA
ATOM     59  H   UNL     1     -44.048  42.257  25.800  1.00  0.00     0.065 H 
ATOM     60  C   UNL     1     -42.496  41.465  28.320  1.00  0.00     0.136 A 
ATOM     61  C   UNL     1     -42.905  39.819  29.878  1.00  0.00     0.120 A 
ATOM     62  N   UNL     1     -42.136  40.834  29.449  1.00  0.00    -0.219 NA
ATOM     63  H   UNL     1     -42.589  39.341  30.801  1.00  0.00     0.106 H 
BRANCH  60  64
ATOM     64  N   UNL     1     -41.687  42.508  27.891  1.00  0.00    -0.383 N 
ATOM     65  H   UNL     1     -40.756  42.514  28.283  1.00  0.00     0.158 HD
ATOM     66  H   UNL     1     -42.193  43.385  27.925  1.00  0.00     0.158 HD
ENDBRANCH  60  64
ENDBRANCH  48  52
ENDBRANCH  40  43
ENDBRANCH  39  40
ENDBRANCH   7  39
TORSDOF 13
ENDMDL
MODEL 2
REMARK VINA RESULT:      -8.7      1.588      2.380
REMARK SMILES CCc1cc(NCCN(C)C)c2ccc(OCc3cncc(-n4ccc5c(N)ncnc54)c3)cc2n1
REMARK SMILES IDX 3 1 4 2 5 3 12 4 13 5 14 6 15 7 34 8 35 9 36 10 2 15 1 18
REMARK SMILES IDX 6 22 7 24 8 27 9 30 10 31 11 35 16 39 17 40 18 43 19 44
REMARK SMILES IDX 33 45 20 46 22 48 21 50 23 52 24 53 32 54 25 55 26 57 31 58
REMARK SMILES IDX 27 60 30 61 29 62 28 64
REMARK H PARENT 4 11 13 12 14 13 34 14 2 16 2 17 1 19 1 20 1 21 6 23 7 25 7 26
REMARK H PARENT 8 28 8 29 10 32 10 33 10 34 11 36 11 37 11 38 17 41 17 42
REMARK H PARENT 19 47 33 49 21 51 24 56 25 59 30 63 28 65 28 66
REMARK Flexibility Score: inf
ROOT
ATOM      1  C   UNL     1     -46.473  31.088  22.898  1.00  0.00     0.043 A 
ATOM      2  C   UNL     1     -47.577  30.363  23.328  1.00  0.00    -0.017 A 
ATOM      3  C   UNL     1     -48.328  30.817  24.414  1.00  0.00     0.045 A 
ATOM      4  C   UNL     1     -47.970  32.070  24.989  1.00  0.00     0.024 A 
ATOM      5  C   UNL     1     -48.693  32.697  26.031  1.00  0.00    -0.047 A 
ATOM      6  C   UNL     1     -48.283  33.919  26.564  1.00  0.00    -0.019 A 
ATOM      7  C   UNL     1     -47.144  34.549  26.074  1.00  0.00     0.122 A 
ATOM      8  C   UNL     1     -46.440  33.951  25.030  1.00  0.00     0.007 A 
ATOM      9  C   UNL     1     -46.831  32.734  24.481  1.00  0.00     0.076 A 
ATOM     10  N   UNL     1     -46.098  32.252  23.469  1.00  0.00    -0.253 NA
ATOM     11  H   UNL     1     -47.821  29.443  22.810  1.00  0.00     0.066 H 
ATOM     12  H   UNL     1     -49.598  32.247  26.427  1.00  0.00     0.063 H 
ATOM     13  H   UNL     1     -48.858  34.380  27.364  1.00  0.00     0.066 H 
ATOM     14  H   UNL     1     -45.567  34.424  24.592  1.00  0.00     0.069 H 
ENDROOT
BRANCH   1  15
ATOM     15  C   UNL     1     -45.654  30.611  21.726  1.00  0.00    -0.013 C 
ATOM     16  H   UNL     1     -45.917  29.574  21.486  1.00  0.00     0.033 H 
ATOM     17  H   UNL     1     -44.593  30.606  22.006  1.00  0.00     0.033 H 
BRANCH  15  18
ATOM     18  C   UNL     1     -45.851  31.499  20.507  1.00  0.00    -0.060 C 
ATOM     19  H   UNL     1     -44.924  32.019  20.241  1.00  0.00     0.023 H 
ATOM     20  H   UNL     1     -46.618  32.252  20.708  1.00  0.00     0.023 H 
ATOM     21  H   UNL     1     -46.168  30.912  19.638  1.00  0.00     0.023 H 
ENDBRANCH  15  18
ENDBRANCH   1  15
BRANCH   3  22
ATOM     22  N   UNL     1     -49.470  30.135  24.882  1.00  0.00    -0.383 N 
ATOM     23  H   UNL     1     -49.381  29.943  25.877  1.00  0.00     0.160 HD
BRANCH  22  24
ATOM     24  C   UNL     1     -50.036  28.988  24.163  1.00  0.00     0.027 C 
ATOM     25  H   UNL     1     -51.123  29.079  24.051  1.00  0.00     0.050 H 
ATOM     26  H   UNL     1     -49.624  29.015  23.148  1.00  0.00     0.050 H 
BRANCH  24  27
ATOM     27  C   UNL     1     -49.634  27.652  24.827  1.00  0.00     0.015 C 
ATOM     28  H   UNL     1     -50.438  27.321  25.499  1.00  0.00     0.045 H 
ATOM     29  H   UNL     1     -49.564  26.887  24.043  1.00  0.00     0.045 H 
BRANCH  27  30
ATOM     30  N   UNL     1     -48.342  27.705  25.545  1.00  0.00    -0.308 NA
BRANCH  30  31
ATOM     31  C   UNL     1     -48.487  27.337  26.955  1.00  0.00    -0.014 C 
ATOM     32  H   UNL     1     -49.478  26.914  27.153  1.00  0.00     0.039 H 
ATOM     33  H   UNL     1     -48.404  28.223  27.594  1.00  0.00     0.039 H 
ATOM     34  H   UNL     1     -47.729  26.613  27.274  1.00  0.00     0.039 H 
ENDBRANCH  30  31
BRANCH  30  35
ATOM     35  C   UNL     1     -47.379  26.806  24.900  1.00  0.00    -0.014 C 
ATOM     36  H   UNL     1     -47.145  25.935  25.522  1.00  0.00     0.039 H 
ATOM     37  H   UNL     1     -47.767  26.452  23.939  1.00  0.00     0.039 H 
ATOM     38  H   UNL     1     -46.445  27.336  24.681  1.00  0.00     0.039 H 
ENDBRANCH  30  35
ENDBRANCH  27  30
ENDBRANCH  24  27
ENDBRANCH  22  24
ENDBRANCH   3  22
BRANCH   7  39
ATOM     39  O   UNL     1     -46.851  35.742  26.671  1.00  0.00    -0.489 OA
BRANCH  39  40
ATOM     40  C   UNL     1     -46.278  35.727  27.982  1.00  0.00     0.115 C 
ATOM     41  H   UNL     1     -45.606  34.868  28.109  1.00  0.00     0.076 H 
ATOM     42  H   UNL     1     -47.109  35.570  28.679  1.00  0.00     0.076 H 
BRANCH  40  43
ATOM     43  C   UNL     1     -45.614  37.026  28.362  1.00  0.00     0.010 A 
ATOM     44  C   UNL     1     -44.994  37.147  29.599  1.00  0.00     0.034 A 
ATOM     45  C   UNL     1     -45.638  38.162  27.540  1.00  0.00    -0.028 A 
ATOM     46  N   UNL     1     -44.405  38.278  30.038  1.00  0.00    -0.262 NA
ATOM     47  H   UNL     1     -44.950  36.316  30.297  1.00  0.00     0.084 H 
ATOM     48  C   UNL     1     -45.030  39.357  27.954  1.00  0.00     0.066 A 
ATOM     49  H   UNL     1     -46.152  38.083  26.588  1.00  0.00     0.065 H 
ATOM     50  C   UNL     1     -44.433  39.353  29.208  1.00  0.00     0.051 A 
ATOM     51  H   UNL     1     -43.918  40.210  29.628  1.00  0.00     0.086 H 
BRANCH  48  52
ATOM     52  N   UNL     1     -45.026  40.516  27.113  1.00  0.00    -0.300 N 
ATOM     53  C   UNL     1     -46.139  41.034  26.463  1.00  0.00     0.012 A 
ATOM     54  C   UNL     1     -43.942  41.334  26.781  1.00  0.00     0.150 A 
ATOM     55  C   UNL     1     -45.776  42.144  25.736  1.00  0.00    -0.031 A 
ATOM     56  H   UNL     1     -47.111  40.572  26.543  1.00  0.00     0.082 H 
ATOM     57  C   UNL     1     -44.389  42.341  25.930  1.00  0.00     0.061 A 
ATOM     58  N   UNL     1     -42.671  41.207  27.212  1.00  0.00    -0.218 NA
ATOM     59  H   UNL     1     -46.440  42.750  25.134  1.00  0.00     0.065 H 
ATOM     60  C   UNL     1     -43.442  43.274  25.481  1.00  0.00     0.136 A 
ATOM     61  C   UNL     1     -41.858  42.156  26.724  1.00  0.00     0.120 A 
ATOM     62  N   UNL     1     -42.168  43.162  25.890  1.00  0.00    -0.219 NA
ATOM     63  H   UNL     1     -40.820  42.105  27.041  1.00  0.00     0.106 H 
BRANCH  60  64
ATOM     64  N   UNL     1     -43.742  44.317  24.617  1.00  0.00    -0.383 N 
ATOM     65  H   UNL     1     -44.691  44.660  24.676  1.00  0.00     0.158 HD
ATOM     66  H   UNL     1     -43.395  44.116  23.686  1.00  0.00     0.158 HD
ENDBRANCH  60  64
ENDBRANCH  48  52
ENDBRANCH  40  43
ENDBRANCH  39  40
ENDBRANCH   7  39
TORSDOF 13
ENDMDL
MODEL 3
REMARK VINA RESULT:      -8.7      1.885      4.056
REMARK SMILES CCc1cc(NCCN(C)C)c2ccc(OCc3cncc(-n4ccc5c(N)ncnc54)c3)cc2n1
REMARK SMILES IDX 3 1 4 2 5 3 12 4 13 5 14 6 15 7 34 8 35 9 36 10 2 15 1 18
REMARK SMILES IDX 6 22 7 24 8 27 9 30 10 31 11 35 16 39 17 40 18 43 19 44
REMARK SMILES IDX 33 45 20 46 22 48 21 50 23 52 24 53 32 54 25 55 26 57 31 58
REMARK SMILES IDX 27 60 30 61 29 62 28 64
REMARK H PARENT 4 11 13 12 14 13 34 14 2 16 2 17 1 19 1 20 1 21 6 23 7 25 7 26
REMARK H PARENT 8 28 8 29 10 32 10 33 10 34 11 36 11 37 11 38 17 41 17 42
REMARK H PARENT 19 47 33 49 21 51 24 56 25 59 30 63 28 65 28 66
REMARK Flexibility Score: inf
ROOT
ATOM      1  C   UNL     1     -48.816  27.321  25.268  1.00  0.00     0.043 A 
ATOM      2  C   UNL     1     -48.697  27.418  23.888  1.00  0.00    -0.017 A 
ATOM      3  C   UNL     1     -48.490  28.665  23.293  1.00  0.00     0.045 A 
ATOM      4  C   UNL     1     -48.325  29.789  24.152  1.00  0.00     0.024 A 
ATOM      5  C   UNL     1     -48.019  31.093  23.696  1.00  0.00    -0.047 A 
ATOM      6  C   UNL     1     -47.884  32.158  24.586  1.00  0.00    -0.019 A 
ATOM      7  C   UNL     1     -48.049  31.954  25.951  1.00  0.00     0.122 A 
ATOM      8  C   UNL     1     -48.324  30.667  26.411  1.00  0.00     0.007 A 
ATOM      9  C   UNL     1     -48.462  29.589  25.544  1.00  0.00     0.076 A 
ATOM     10  N   UNL     1     -48.709  28.390  26.086  1.00  0.00    -0.253 NA
ATOM     11  H   UNL     1     -48.783  26.512  23.300  1.00  0.00     0.066 H 
ATOM     12  H   UNL     1     -47.864  31.289  22.639  1.00  0.00     0.063 H 
ATOM     13  H   UNL     1     -47.648  33.151  24.209  1.00  0.00     0.066 H 
ATOM     14  H   UNL     1     -48.424  30.454  27.471  1.00  0.00     0.069 H 
ENDROOT
BRANCH   1  15
ATOM     15  C   UNL     1     -49.037  25.983  25.925  1.00  0.00    -0.013 C 
ATOM     16  H   UNL     1     -49.639  25.342  25.270  1.00  0.00     0.033 H 
ATOM     17  H   UNL     1     -49.620  26.124  26.843  1.00  0.00     0.033 H 
BRANCH  15  18
ATOM     18  C   UNL     1     -47.721  25.300  26.262  1.00  0.00    -0.060 C 
ATOM     19  H   UNL     1     -47.593  25.195  27.344  1.00  0.00     0.023 H 
ATOM     20  H   UNL     1     -46.882  25.886  25.876  1.00  0.00     0.023 H 
ATOM     21  H   UNL     1     -47.670  24.299  25.819  1.00  0.00     0.023 H 
ENDBRANCH  15  18
ENDBRANCH   1  15
BRANCH   3  22
ATOM     22  N   UNL     1     -48.342  28.822  21.900  1.00  0.00    -0.383 N 
ATOM     23  H   UNL     1     -47.858  29.693  21.694  1.00  0.00     0.160 HD
BRANCH  22  24
ATOM     24  C   UNL     1     -49.455  28.594  20.970  1.00  0.00     0.027 C 
ATOM     25  H   UNL     1     -49.280  27.715  20.339  1.00  0.00     0.050 H 
ATOM     26  H   UNL     1     -50.334  28.358  21.581  1.00  0.00     0.050 H 
BRANCH  24  27
ATOM     27  C   UNL     1     -49.757  29.857  20.133  1.00  0.00     0.015 C 
ATOM     28  H   UNL     1     -48.908  30.552  20.201  1.00  0.00     0.045 H 
ATOM     29  H   UNL     1     -49.819  29.561  19.078  1.00  0.00     0.045 H 
BRANCH  27  30
ATOM     30  N   UNL     1     -51.018  30.535  20.503  1.00  0.00    -0.308 NA
BRANCH  30  31
ATOM     31  C   UNL     1     -51.943  29.629  21.187  1.00  0.00    -0.014 C 
ATOM     32  H   UNL     1     -52.481  28.999  20.471  1.00  0.00     0.039 H 
ATOM     33  H   UNL     1     -52.711  30.198  21.723  1.00  0.00     0.039 H 
ATOM     34  H   UNL     1     -51.432  28.981  21.907  1.00  0.00     0.039 H 
ENDBRANCH  30  31
BRANCH  30  35
ATOM     35  C   UNL     1     -50.728  31.684  21.366  1.00  0.00    -0.014 C 
ATOM     36  H   UNL     1     -50.169  32.466  20.840  1.00  0.00     0.039 H 
ATOM     37  H   UNL     1     -51.656  32.120  21.752  1.00  0.00     0.039 H 
ATOM     38  H   UNL     1     -50.146  31.372  22.242  1.00  0.00     0.039 H 
ENDBRANCH  30  35
ENDBRANCH  27  30
ENDBRANCH  24  27
ENDBRANCH  22  24
ENDBRANCH   3  22
BRANCH   7  39
ATOM     39  O   UNL     1     -47.885  33.072  26.719  1.00  0.00    -0.489 OA
BRANCH  39  40
ATOM     40  C   UNL     1     -47.087  34.143  26.205  1.00  0.00     0.115 C 
ATOM     41  H   UNL     1     -47.212  34.240  25.118  1.00  0.00     0.076 H 
ATOM     42  H   UNL     1     -46.043  33.853  26.368  1.00  0.00     0.076 H 
BRANCH  40  43
ATOM     43  C   UNL     1     -47.306  35.452  26.920  1.00  0.00     0.010 A 
ATOM     44  C   UNL     1     -48.598  35.883  27.187  1.00  0.00     0.034 A 
ATOM     45  C   UNL     1     -46.254  36.303  27.287  1.00  0.00    -0.028 A 
ATOM     46  N   UNL     1     -48.892  37.052  27.791  1.00  0.00    -0.262 NA
ATOM     47  H   UNL     1     -49.465  35.285  26.917  1.00  0.00     0.084 H 
ATOM     48  C   UNL     1     -46.513  37.526  27.924  1.00  0.00     0.066 A 
ATOM     49  H   UNL     1     -45.244  35.987  27.048  1.00  0.00     0.065 H 
ATOM     50  C   UNL     1     -47.848  37.844  28.148  1.00  0.00     0.051 A 
ATOM     51  H   UNL     1     -48.171  38.751  28.646  1.00  0.00     0.086 H 
BRANCH  48  52
ATOM     52  N   UNL     1     -45.447  38.393  28.328  1.00  0.00    -0.300 N 
ATOM     53  C   UNL     1     -44.718  38.266  29.504  1.00  0.00     0.012 A 
ATOM     54  C   UNL     1     -44.939  39.506  27.651  1.00  0.00     0.150 A 
ATOM     55  C   UNL     1     -43.779  39.268  29.576  1.00  0.00    -0.031 A 
ATOM     56  H   UNL     1     -44.925  37.485  30.221  1.00  0.00     0.082 H 
ATOM     57  C   UNL     1     -43.912  40.057  28.410  1.00  0.00     0.061 A 
ATOM     58  N   UNL     1     -45.342  39.977  26.453  1.00  0.00    -0.218 NA
ATOM     59  H   UNL     1     -43.071  39.413  30.381  1.00  0.00     0.065 H 
ATOM     60  C   UNL     1     -43.267  41.192  27.895  1.00  0.00     0.136 A 
ATOM     61  C   UNL     1     -44.652  41.058  26.061  1.00  0.00     0.120 A 
ATOM     62  N   UNL     1     -43.658  41.686  26.709  1.00  0.00    -0.219 NA
ATOM     63  H   UNL     1     -44.933  41.480  25.100  1.00  0.00     0.106 H 
BRANCH  60  64
ATOM     64  N   UNL     1     -42.241  41.856  28.552  1.00  0.00    -0.383 N 
ATOM     65  H   UNL     1     -41.510  42.211  27.951  1.00  0.00     0.158 HD
ATOM     66  H   UNL     1     -41.938  41.327  29.361  1.00  0.00     0.158 HD
ENDBRANCH  60  64
ENDBRANCH  48  52
ENDBRANCH  40  43
ENDBRANCH  39  40
ENDBRANCH   7  39
TORSDOF 13
ENDMDL
MODEL 4
REMARK VINA RESULT:      -8.4      2.492      3.617
REMARK SMILES CCc1cc(NCCN(C)C)c2ccc(OCc3cncc(-n4ccc5c(N)ncnc54)c3)cc2n1
REMARK SMILES IDX 3 1 4 2 5 3 12 4 13 5 14 6 15 7 34 8 35 9 36 10 2 15 1 18
REMARK SMILES IDX 6 22 7 24 8 27 9 30 10 31 11 35 16 39 17 40 18 43 19 44
REMARK SMILES IDX 33 45 20 46 22 48 21 50 23 52 24 53 32 54 25 55 26 57 31 58
REMARK SMILES IDX 27 60 30 61 29 62 28 64
REMARK H PARENT 4 11 13 12 14 13 34 14 2 16 2 17 1 19 1 20 1 21 6 23 7 25 7 26
REMARK H PARENT 8 28 8 29 10 32 10 33 10 34 11 36 11 37 11 38 17 41 17 42
REMARK H PARENT 19 47 33 49 21 51 24 56 25 59 30 63 28 65 28 66
REMARK Flexibility Score: inf
ROOT
ATOM      1  C   UNL     1     -46.732  31.182  22.968  1.00  0.00     0.043 A 
ATOM      2  C   UNL     1     -48.043  30.731  23.042  1.00  0.00    -0.017 A 
ATOM      3  C   UNL     1     -48.892  31.220  24.039  1.00  0.00     0.045 A 
ATOM      4  C   UNL     1     -48.388  32.238  24.897  1.00  0.00     0.024 A 
ATOM      5  C   UNL     1     -49.159  32.889  25.888  1.00  0.00    -0.047 A 
ATOM      6  C   UNL     1     -48.604  33.869  26.710  1.00  0.00    -0.019 A 
ATOM      7  C   UNL     1     -47.268  34.228  26.567  1.00  0.00     0.122 A 
ATOM      8  C   UNL     1     -46.508  33.610  25.576  1.00  0.00     0.007 A 
ATOM      9  C   UNL     1     -47.040  32.632  24.743  1.00  0.00     0.076 A 
ATOM     10  N   UNL     1     -46.232  32.112  23.810  1.00  0.00    -0.253 NA
ATOM     11  H   UNL     1     -48.374  29.992  22.323  1.00  0.00     0.066 H 
ATOM     12  H   UNL     1     -50.211  32.651  26.018  1.00  0.00     0.063 H 
ATOM     13  H   UNL     1     -49.220  34.355  27.464  1.00  0.00     0.066 H 
ATOM     14  H   UNL     1     -45.472  33.885  25.403  1.00  0.00     0.069 H 
ENDROOT
BRANCH   1  15
ATOM     15  C   UNL     1     -45.805  30.666  21.898  1.00  0.00    -0.013 C 
ATOM     16  H   UNL     1     -46.034  29.616  21.682  1.00  0.00     0.033 H 
ATOM     17  H   UNL     1     -44.774  30.689  22.272  1.00  0.00     0.033 H 
BRANCH  15  18
ATOM     18  C   UNL     1     -45.900  31.496  20.627  1.00  0.00    -0.060 C 
ATOM     19  H   UNL     1     -46.898  31.429  20.182  1.00  0.00     0.023 H 
ATOM     20  H   UNL     1     -45.174  31.142  19.890  1.00  0.00     0.023 H 
ATOM     21  H   UNL     1     -45.693  32.554  20.829  1.00  0.00     0.023 H 
ENDBRANCH  15  18
ENDBRANCH   1  15
BRANCH   3  22
ATOM     22  N   UNL     1     -50.238  30.814  24.150  1.00  0.00    -0.383 N 
ATOM     23  H   UNL     1     -50.530  30.833  25.124  1.00  0.00     0.160 HD
BRANCH  22  24
ATOM     24  C   UNL     1     -50.750  29.625  23.459  1.00  0.00     0.027 C 
ATOM     25  H   UNL     1     -50.029  29.243  22.727  1.00  0.00     0.050 H 
ATOM     26  H   UNL     1     -50.857  28.840  24.216  1.00  0.00     0.050 H 
BRANCH  24  27
ATOM     27  C   UNL     1     -52.131  29.894  22.823  1.00  0.00     0.015 C 
ATOM     28  H   UNL     1     -52.763  29.001  22.931  1.00  0.00     0.045 H 
ATOM     29  H   UNL     1     -52.627  30.684  23.401  1.00  0.00     0.045 H 
BRANCH  27  30
ATOM     30  N   UNL     1     -52.068  30.321  21.409  1.00  0.00    -0.308 NA
BRANCH  30  31
ATOM     31  C   UNL     1     -51.995  31.778  21.281  1.00  0.00    -0.014 C 
ATOM     32  H   UNL     1     -51.967  32.081  20.229  1.00  0.00     0.039 H 
ATOM     33  H   UNL     1     -51.071  32.157  21.730  1.00  0.00     0.039 H 
ATOM     34  H   UNL     1     -52.841  32.278  21.766  1.00  0.00     0.039 H 
ENDBRANCH  30  31
BRANCH  30  35
ATOM     35  C   UNL     1     -50.902  29.713  20.759  1.00  0.00    -0.014 C 
ATOM     36  H   UNL     1     -50.122  30.449  20.536  1.00  0.00     0.039 H 
ATOM     37  H   UNL     1     -50.471  28.931  21.395  1.00  0.00     0.039 H 
ATOM     38  H   UNL     1     -51.194  29.223  19.823  1.00  0.00     0.039 H 
ENDBRANCH  30  35
ENDBRANCH  27  30
ENDBRANCH  24  27
ENDBRANCH  22  24
ENDBRANCH   3  22
BRANCH   7  39
ATOM     39  O   UNL     1     -46.845  35.204  27.424  1.00  0.00    -0.489 OA
BRANCH  39  40
ATOM     40  C   UNL     1     -46.466  36.473  26.882  1.00  0.00     0.115 C 
ATOM     41  H   UNL     1     -47.337  37.002  26.473  1.00  0.00     0.076 H 
ATOM     42  H   UNL     1     -45.811  36.259  26.030  1.00  0.00     0.076 H 
BRANCH  40  43
ATOM     43  C   UNL     1     -45.684  37.329  27.845  1.00  0.00     0.010 A 
ATOM     44  C   UNL     1     -45.529  36.918  29.162  1.00  0.00     0.034 A 
ATOM     45  C   UNL     1     -45.142  38.572  27.490  1.00  0.00    -0.028 A 
ATOM     46  N   UNL     1     -44.876  37.632  30.101  1.00  0.00    -0.262 NA
ATOM     47  H   UNL     1     -45.936  35.975  29.516  1.00  0.00     0.084 H 
ATOM     48  C   UNL     1     -44.447  39.345  28.433  1.00  0.00     0.066 A 
ATOM     49  H   UNL     1     -45.291  38.914  26.471  1.00  0.00     0.065 H 
ATOM     50  C   UNL     1     -44.348  38.823  29.717  1.00  0.00     0.051 A 
ATOM     51  H   UNL     1     -43.822  39.319  30.525  1.00  0.00     0.086 H 
BRANCH  48  52
ATOM     52  N   UNL     1     -43.866  40.604  28.077  1.00  0.00    -0.300 N 
ATOM     53  C   UNL     1     -42.642  41.076  28.536  1.00  0.00     0.012 A 
ATOM     54  C   UNL     1     -44.389  41.584  27.228  1.00  0.00     0.150 A 
ATOM     55  C   UNL     1     -42.396  42.319  28.001  1.00  0.00    -0.031 A 
ATOM     56  H   UNL     1     -42.036  40.509  29.226  1.00  0.00     0.082 H 
ATOM     57  C   UNL     1     -43.494  42.649  27.174  1.00  0.00     0.061 A 
ATOM     58  N   UNL     1     -45.551  41.528  26.546  1.00  0.00    -0.218 NA
ATOM     59  H   UNL     1     -41.516  42.922  28.184  1.00  0.00     0.065 H 
ATOM     60  C   UNL     1     -43.841  43.743  26.366  1.00  0.00     0.136 A 
ATOM     61  C   UNL     1     -45.774  42.623  25.805  1.00  0.00     0.120 A 
ATOM     62  N   UNL     1     -44.998  43.713  25.685  1.00  0.00    -0.219 NA
ATOM     63  H   UNL     1     -46.696  42.632  25.231  1.00  0.00     0.106 H 
BRANCH  60  64
ATOM     64  N   UNL     1     -43.055  44.879  26.232  1.00  0.00    -0.383 N 
ATOM     65  H   UNL     1     -42.069  44.701  26.101  1.00  0.00     0.158 HD
ATOM     66  H   UNL     1     -43.297  45.561  26.941  1.00  0.00     0.158 HD
ENDBRANCH  60  64
ENDBRANCH  48  52
ENDBRANCH  40  43
ENDBRANCH  39  40
ENDBRANCH   7  39
TORSDOF 13
ENDMDL
MODEL 5
REMARK VINA RESULT:      -8.3      2.604      5.453
REMARK SMILES CCc1cc(NCCN(C)C)c2ccc(OCc3cncc(-n4ccc5c(N)ncnc54)c3)cc2n1
REMARK SMILES IDX 3 1 4 2 5 3 12 4 13 5 14 6 15 7 34 8 35 9 36 10 2 15 1 18
REMARK SMILES IDX 6 22 7 24 8 27 9 30 10 31 11 35 16 39 17 40 18 43 19 44
REMARK SMILES IDX 33 45 20 46 22 48 21 50 23 52 24 53 32 54 25 55 26 57 31 58
REMARK SMILES IDX 27 60 30 61 29 62 28 64
REMARK H PARENT 4 11 13 12 14 13 34 14 2 16 2 17 1 19 1 20 1 21 6 23 7 25 7 26
REMARK H PARENT 8 28 8 29 10 32 10 33 10 34 11 36 11 37 11 38 17 41 17 42
REMARK H PARENT 19 47 33 49 21 51 24 56 25 59 30 63 28 65 28 66
REMARK Flexibility Score: inf
ROOT
ATOM      1  C   UNL     1     -50.557  34.845  26.727  1.00  0.00     0.043 A 
ATOM      2  C   UNL     1     -50.155  33.621  26.206  1.00  0.00    -0.017 A 
ATOM      3  C   UNL     1     -48.801  33.281  26.193  1.00  0.00     0.045 A 
ATOM      4  C   UNL     1     -47.884  34.187  26.800  1.00  0.00     0.024 A 
ATOM      5  C   UNL     1     -46.500  33.934  26.941  1.00  0.00    -0.047 A 
ATOM      6  C   UNL     1     -45.649  34.868  27.532  1.00  0.00    -0.019 A 
ATOM      7  C   UNL     1     -46.154  36.077  27.997  1.00  0.00     0.122 A 
ATOM      8  C   UNL     1     -47.521  36.324  27.886  1.00  0.00     0.007 A 
ATOM      9  C   UNL     1     -48.389  35.407  27.303  1.00  0.00     0.076 A 
ATOM     10  N   UNL     1     -49.688  35.730  27.259  1.00  0.00    -0.253 NA
ATOM     11  H   UNL     1     -50.914  32.959  25.807  1.00  0.00     0.066 H 
ATOM     12  H   UNL     1     -46.071  32.994  26.608  1.00  0.00     0.063 H 
ATOM     13  H   UNL     1     -44.589  34.648  27.629  1.00  0.00     0.066 H 
ATOM     14  H   UNL     1     -47.965  37.238  28.269  1.00  0.00     0.069 H 
ENDROOT
BRANCH   1  15
ATOM     15  C   UNL     1     -52.014  35.225  26.750  1.00  0.00    -0.013 C 
ATOM     16  H   UNL     1     -52.541  34.637  27.511  1.00  0.00     0.033 H 
ATOM     17  H   UNL     1     -52.470  34.966  25.786  1.00  0.00     0.033 H 
BRANCH  15  18
ATOM     18  C   UNL     1     -52.201  36.711  27.014  1.00  0.00    -0.060 C 
ATOM     19  H   UNL     1     -51.928  36.969  28.042  1.00  0.00     0.023 H 
ATOM     20  H   UNL     1     -53.247  36.994  26.859  1.00  0.00     0.023 H 
ATOM     21  H   UNL     1     -51.582  37.314  26.340  1.00  0.00     0.023 H 
ENDBRANCH  15  18
ENDBRANCH   1  15
BRANCH   3  22
ATOM     22  N   UNL     1     -48.337  32.046  25.697  1.00  0.00    -0.383 N 
ATOM     23  H   UNL     1     -47.496  31.761  26.194  1.00  0.00     0.160 HD
BRANCH  22  24
ATOM     24  C   UNL     1     -48.225  31.780  24.258  1.00  0.00     0.027 C 
ATOM     25  H   UNL     1     -49.014  31.103  23.910  1.00  0.00     0.050 H 
ATOM     26  H   UNL     1     -48.397  32.733  23.745  1.00  0.00     0.050 H 
BRANCH  24  27
ATOM     27  C   UNL     1     -46.817  31.264  23.888  1.00  0.00     0.015 C 
ATOM     28  H   UNL     1     -46.276  32.044  23.333  1.00  0.00     0.045 H 
ATOM     29  H   UNL     1     -46.253  31.110  24.817  1.00  0.00     0.045 H 
BRANCH  27  30
ATOM     30  N   UNL     1     -46.823  29.994  23.130  1.00  0.00    -0.308 NA
BRANCH  30  31
ATOM     31  C   UNL     1     -47.963  29.912  22.215  1.00  0.00    -0.014 C 
ATOM     32  H   UNL     1     -48.257  28.871  22.042  1.00  0.00     0.039 H 
ATOM     33  H   UNL     1     -47.698  30.317  21.232  1.00  0.00     0.039 H 
ATOM     34  H   UNL     1     -48.834  30.463  22.588  1.00  0.00     0.039 H 
ENDBRANCH  30  31
BRANCH  30  35
ATOM     35  C   UNL     1     -45.575  29.864  22.371  1.00  0.00    -0.014 C 
ATOM     36  H   UNL     1     -45.551  28.948  21.770  1.00  0.00     0.039 H 
ATOM     37  H   UNL     1     -45.439  30.721  21.703  1.00  0.00     0.039 H 
ATOM     38  H   UNL     1     -44.712  29.857  23.047  1.00  0.00     0.039 H 
ENDBRANCH  30  35
ENDBRANCH  27  30
ENDBRANCH  24  27
ENDBRANCH  22  24
ENDBRANCH   3  22
BRANCH   7  39
ATOM     39  O   UNL     1     -45.224  36.904  28.562  1.00  0.00    -0.489 OA
BRANCH  39  40
ATOM     40  C   UNL     1     -45.622  38.227  28.934  1.00  0.00     0.115 C 
ATOM     41  H   UNL     1     -46.147  38.224  29.898  1.00  0.00     0.076 H 
ATOM     42  H   UNL     1     -46.358  38.547  28.187  1.00  0.00     0.076 H 
BRANCH  40  43
ATOM     43  C   UNL     1     -44.492  39.224  28.907  1.00  0.00     0.010 A 
ATOM     44  C   UNL     1     -43.563  39.241  29.938  1.00  0.00     0.034 A 
ATOM     45  C   UNL     1     -44.358  40.195  27.903  1.00  0.00    -0.028 A 
ATOM     46  N   UNL     1     -42.541  40.116  30.016  1.00  0.00    -0.262 NA
ATOM     47  H   UNL     1     -43.612  38.532  30.760  1.00  0.00     0.084 H 
ATOM     48  C   UNL     1     -43.304  41.120  27.940  1.00  0.00     0.066 A 
ATOM     49  H   UNL     1     -45.102  40.208  27.113  1.00  0.00     0.065 H 
ATOM     50  C   UNL     1     -42.431  41.031  29.018  1.00  0.00     0.051 A 
ATOM     51  H   UNL     1     -41.571  41.679  29.146  1.00  0.00     0.086 H 
BRANCH  48  52
ATOM     52  N   UNL     1     -43.140  42.099  26.908  1.00  0.00    -0.300 N 
ATOM     53  C   UNL     1     -41.922  42.484  26.360  1.00  0.00     0.012 A 
ATOM     54  C   UNL     1     -44.131  42.845  26.264  1.00  0.00     0.150 A 
ATOM     55  C   UNL     1     -42.131  43.447  25.400  1.00  0.00    -0.031 A 
ATOM     56  H   UNL     1     -40.987  42.064  26.699  1.00  0.00     0.082 H 
ATOM     57  C   UNL     1     -43.523  43.683  25.333  1.00  0.00     0.061 A 
ATOM     58  N   UNL     1     -45.461  42.772  26.472  1.00  0.00    -0.218 NA
ATOM     59  H   UNL     1     -41.361  43.926  24.809  1.00  0.00     0.065 H 
ATOM     60  C   UNL     1     -44.358  44.519  24.576  1.00  0.00     0.136 A 
ATOM     61  C   UNL     1     -46.157  43.610  25.689  1.00  0.00     0.120 A 
ATOM     62  N   UNL     1     -45.685  44.471  24.773  1.00  0.00    -0.219 NA
ATOM     63  H   UNL     1     -47.236  43.593  25.812  1.00  0.00     0.106 H 
BRANCH  60  64
ATOM     64  N   UNL     1     -43.888  45.417  23.627  1.00  0.00    -0.383 N 
ATOM     65  H   UNL     1     -42.900  45.619  23.685  1.00  0.00     0.158 HD
ATOM     66  H   UNL     1     -44.506  46.217  23.563  1.00  0.00     0.158 HD
ENDBRANCH  60  64
ENDBRANCH  48  52
ENDBRANCH  40  43
ENDBRANCH  39  40
ENDBRANCH   7  39
TORSDOF 13
ENDMDL
MODEL 6
REMARK VINA RESULT:      -8.2      2.729     11.746
REMARK SMILES CCc1cc(NCCN(C)C)c2ccc(OCc3cncc(-n4ccc5c(N)ncnc54)c3)cc2n1
REMARK SMILES IDX 3 1 4 2 5 3 12 4 13 5 14 6 15 7 34 8 35 9 36 10 2 15 1 18
REMARK SMILES IDX 6 22 7 24 8 27 9 30 10 31 11 35 16 39 17 40 18 43 19 44
REMARK SMILES IDX 33 45 20 46 22 48 21 50 23 52 24 53 32 54 25 55 26 57 31 58
REMARK SMILES IDX 27 60 30 61 29 62 28 64
REMARK H PARENT 4 11 13 12 14 13 34 14 2 16 2 17 1 19 1 20 1 21 6 23 7 25 7 26
REMARK H PARENT 8 28 8 29 10 32 10 33 10 34 11 36 11 37 11 38 17 41 17 42
REMARK H PARENT 19 47 33 49 21 51 24 56 25 59 30 63 28 65 28 66
REMARK Flexibility Score: inf
ROOT
ATOM      1  C   UNL     1     -42.961  41.141  28.269  1.00  0.00     0.043 A 
ATOM      2  C   UNL     1     -43.159  41.721  27.022  1.00  0.00    -0.017 A 
ATOM      3  C   UNL     1     -44.204  41.280  26.207  1.00  0.00     0.045 A 
ATOM      4  C   UNL     1     -45.086  40.295  26.737  1.00  0.00     0.024 A 
ATOM      5  C   UNL     1     -46.237  39.822  26.064  1.00  0.00    -0.047 A 
ATOM      6  C   UNL     1     -47.054  38.842  26.628  1.00  0.00    -0.019 A 
ATOM      7  C   UNL     1     -46.748  38.310  27.875  1.00  0.00     0.122 A 
ATOM      8  C   UNL     1     -45.631  38.789  28.557  1.00  0.00     0.007 A 
ATOM      9  C   UNL     1     -44.802  39.766  28.016  1.00  0.00     0.076 A 
ATOM     10  N   UNL     1     -43.763  40.172  28.757  1.00  0.00    -0.253 NA
ATOM     11  H   UNL     1     -42.479  42.503  26.705  1.00  0.00     0.066 H 
ATOM     12  H   UNL     1     -46.520  40.226  25.097  1.00  0.00     0.063 H 
ATOM     13  H   UNL     1     -47.934  38.497  26.090  1.00  0.00     0.066 H 
ATOM     14  H   UNL     1     -45.375  38.429  29.548  1.00  0.00     0.069 H 
ENDROOT
BRANCH   1  15
ATOM     15  C   UNL     1     -41.839  41.608  29.160  1.00  0.00    -0.013 C 
ATOM     16  H   UNL     1     -42.095  42.577  29.604  1.00  0.00     0.033 H 
ATOM     17  H   UNL     1     -40.940  41.772  28.552  1.00  0.00     0.033 H 
BRANCH  15  18
ATOM     18  C   UNL     1     -41.533  40.594  30.252  1.00  0.00    -0.060 C 
ATOM     19  H   UNL     1     -41.151  41.085  31.153  1.00  0.00     0.023 H 
ATOM     20  H   UNL     1     -40.777  39.883  29.906  1.00  0.00     0.023 H 
ATOM     21  H   UNL     1     -42.430  40.030  30.530  1.00  0.00     0.023 H 
ENDBRANCH  15  18
ENDBRANCH   1  15
BRANCH   3  22
ATOM     22  N   UNL     1     -44.466  41.845  24.942  1.00  0.00    -0.383 N 
ATOM     23  H   UNL     1     -43.635  41.794  24.357  1.00  0.00     0.160 HD
BRANCH  22  24
ATOM     24  C   UNL     1     -45.148  43.136  24.795  1.00  0.00     0.027 C 
ATOM     25  H   UNL     1     -44.647  43.776  24.060  1.00  0.00     0.050 H 
ATOM     26  H   UNL     1     -46.142  42.924  24.383  1.00  0.00     0.050 H 
BRANCH  24  27
ATOM     27  C   UNL     1     -45.316  43.843  26.158  1.00  0.00     0.015 C 
ATOM     28  H   UNL     1     -45.686  43.122  26.900  1.00  0.00     0.045 H 
ATOM     29  H   UNL     1     -44.324  44.153  26.508  1.00  0.00     0.045 H 
BRANCH  27  30
ATOM     30  N   UNL     1     -46.188  45.037  26.110  1.00  0.00    -0.308 NA
BRANCH  30  31
ATOM     31  C   UNL     1     -46.454  45.572  27.447  1.00  0.00    -0.014 C 
ATOM     32  H   UNL     1     -46.980  44.839  28.068  1.00  0.00     0.039 H 
ATOM     33  H   UNL     1     -47.113  46.445  27.388  1.00  0.00     0.039 H 
ATOM     34  H   UNL     1     -45.534  45.871  27.963  1.00  0.00     0.039 H 
ENDBRANCH  30  31
BRANCH  30  35
ATOM     35  C   UNL     1     -45.565  46.074  25.282  1.00  0.00    -0.014 C 
ATOM     36  H   UNL     1     -44.924  45.649  24.501  1.00  0.00     0.039 H 
ATOM     37  H   UNL     1     -46.330  46.696  24.803  1.00  0.00     0.039 H 
ATOM     38  H   UNL     1     -44.959  46.748  25.898  1.00  0.00     0.039 H 
ENDBRANCH  30  35
ENDBRANCH  27  30
ENDBRANCH  24  27
ENDBRANCH  22  24
ENDBRANCH   3  22
BRANCH   7  39
ATOM     39  O   UNL     1     -47.628  37.365  28.323  1.00  0.00    -0.489 OA
BRANCH  39  40
ATOM     40  C   UNL     1     -48.241  36.494  27.367  1.00  0.00     0.115 C 
ATOM     41  H   UNL     1     -48.345  36.990  26.393  1.00  0.00     0.076 H 
ATOM     42  H   UNL     1     -49.260  36.313  27.728  1.00  0.00     0.076 H 
BRANCH  40  43
ATOM     43  C   UNL     1     -47.561  35.154  27.252  1.00  0.00     0.010 A 
ATOM     44  C   UNL     1     -46.733  34.712  28.275  1.00  0.00     0.034 A 
ATOM     45  C   UNL     1     -47.676  34.338  26.118  1.00  0.00    -0.028 A 
ATOM     46  N   UNL     1     -46.058  33.545  28.245  1.00  0.00    -0.262 NA
ATOM     47  H   UNL     1     -46.580  35.297  29.177  1.00  0.00     0.084 H 
ATOM     48  C   UNL     1     -46.998  33.111  26.048  1.00  0.00     0.066 A 
ATOM     49  H   UNL     1     -48.294  34.696  25.301  1.00  0.00     0.065 H 
ATOM     50  C   UNL     1     -46.207  32.771  27.139  1.00  0.00     0.051 A 
ATOM     51  H   UNL     1     -45.650  31.844  27.207  1.00  0.00     0.086 H 
BRANCH  48  52
ATOM     52  N   UNL     1     -47.128  32.256  24.907  1.00  0.00    -0.300 N 
ATOM     53  C   UNL     1     -46.070  31.785  24.139  1.00  0.00     0.012 A 
ATOM     54  C   UNL     1     -48.300  31.740  24.347  1.00  0.00     0.150 A 
ATOM     55  C   UNL     1     -46.553  30.997  23.120  1.00  0.00    -0.031 A 
ATOM     56  H   UNL     1     -45.046  32.054  24.354  1.00  0.00     0.082 H 
ATOM     57  C   UNL     1     -47.961  30.964  23.242  1.00  0.00     0.061 A 
ATOM     58  N   UNL     1     -49.559  31.927  24.791  1.00  0.00    -0.218 NA
ATOM     59  H   UNL     1     -45.953  30.497  22.371  1.00  0.00     0.065 H 
ATOM     60  C   UNL     1     -49.009  30.351  22.538  1.00  0.00     0.136 A 
ATOM     61  C   UNL     1     -50.474  31.291  24.045  1.00  0.00     0.120 A 
ATOM     62  N   UNL     1     -50.272  30.532  22.956  1.00  0.00    -0.219 NA
ATOM     63  H   UNL     1     -51.508  31.405  24.358  1.00  0.00     0.106 H 
BRANCH  60  64
ATOM     64  N   UNL     1     -48.820  29.567  21.409  1.00  0.00    -0.383 N 
ATOM     65  H   UNL     1     -49.537  28.874  21.246  1.00  0.00     0.158 HD
ATOM     66  H   UNL     1     -47.862  29.239  21.363  1.00  0.00     0.158 HD
ENDBRANCH  60  64
ENDBRANCH  48  52
ENDBRANCH  40  43
ENDBRANCH  39  40
ENDBRANCH   7  39
TORSDOF 13
ENDMDL
MODEL 7
REMARK VINA RESULT:      -8.2      2.178     11.717
REMARK SMILES CCc1cc(NCCN(C)C)c2ccc(OCc3cncc(-n4ccc5c(N)ncnc54)c3)cc2n1
REMARK SMILES IDX 3 1 4 2 5 3 12 4 13 5 14 6 15 7 34 8 35 9 36 10 2 15 1 18
REMARK SMILES IDX 6 22 7 24 8 27 9 30 10 31 11 35 16 39 17 40 18 43 19 44
REMARK SMILES IDX 33 45 20 46 22 48 21 50 23 52 24 53 32 54 25 55 26 57 31 58
REMARK SMILES IDX 27 60 30 61 29 62 28 64
REMARK H PARENT 4 11 13 12 14 13 34 14 2 16 2 17 1 19 1 20 1 21 6 23 7 25 7 26
REMARK H PARENT 8 28 8 29 10 32 10 33 10 34 11 36 11 37 11 38 17 41 17 42
REMARK H PARENT 19 47 33 49 21 51 24 56 25 59 30 63 28 65 28 66
REMARK Flexibility Score: inf
ROOT
ATOM      1  C   UNL     1     -45.423  38.318  28.511  1.00  0.00     0.043 A 
ATOM      2  C   UNL     1     -46.707  38.837  28.615  1.00  0.00    -0.017 A 
ATOM      3  C   UNL     1     -47.794  38.111  28.120  1.00  0.00     0.045 A 
ATOM      4  C   UNL     1     -47.538  36.812  27.596  1.00  0.00     0.024 A 
ATOM      5  C   UNL     1     -48.548  35.929  27.145  1.00  0.00    -0.047 A 
ATOM      6  C   UNL     1     -48.234  34.673  26.627  1.00  0.00    -0.019 A 
ATOM      7  C   UNL     1     -46.908  34.262  26.545  1.00  0.00     0.122 A 
ATOM      8  C   UNL     1     -45.908  35.115  27.011  1.00  0.00     0.007 A 
ATOM      9  C   UNL     1     -46.197  36.371  27.534  1.00  0.00     0.076 A 
ATOM     10  N   UNL     1     -45.168  37.108  27.971  1.00  0.00    -0.253 NA
ATOM     11  H   UNL     1     -46.833  39.811  29.073  1.00  0.00     0.066 H 
ATOM     12  H   UNL     1     -49.596  36.206  27.211  1.00  0.00     0.063 H 
ATOM     13  H   UNL     1     -49.029  34.014  26.288  1.00  0.00     0.066 H 
ATOM     14  H   UNL     1     -44.863  34.821  27.001  1.00  0.00     0.069 H 
ENDROOT
BRANCH   1  15
ATOM     15  C   UNL     1     -44.242  39.088  29.043  1.00  0.00    -0.013 C 
ATOM     16  H   UNL     1     -44.499  40.150  29.131  1.00  0.00     0.033 H 
ATOM     17  H   UNL     1     -43.418  39.026  28.321  1.00  0.00     0.033 H 
BRANCH  15  18
ATOM     18  C   UNL     1     -43.779  38.547  30.386  1.00  0.00    -0.060 C 
ATOM     19  H   UNL     1     -42.816  38.978  30.678  1.00  0.00     0.023 H 
ATOM     20  H   UNL     1     -43.663  37.460  30.336  1.00  0.00     0.023 H 
ATOM     21  H   UNL     1     -44.503  38.777  31.176  1.00  0.00     0.023 H 
ENDBRANCH  15  18
ENDBRANCH   1  15
BRANCH   3  22
ATOM     22  N   UNL     1     -49.121  38.578  28.216  1.00  0.00    -0.383 N 
ATOM     23  H   UNL     1     -49.646  38.314  27.386  1.00  0.00     0.160 HD
BRANCH  22  24
ATOM     24  C   UNL     1     -49.432  39.950  28.634  1.00  0.00     0.027 C 
ATOM     25  H   UNL     1     -50.015  39.965  29.563  1.00  0.00     0.050 H 
ATOM     26  H   UNL     1     -48.478  40.435  28.868  1.00  0.00     0.050 H 
BRANCH  24  27
ATOM     27  C   UNL     1     -50.127  40.740  27.503  1.00  0.00     0.015 C 
ATOM     28  H   UNL     1     -49.409  41.441  27.054  1.00  0.00     0.045 H 
ATOM     29  H   UNL     1     -50.396  40.035  26.707  1.00  0.00     0.045 H 
BRANCH  27  30
ATOM     30  N   UNL     1     -51.351  41.450  27.932  1.00  0.00    -0.308 NA
BRANCH  30  31
ATOM     31  C   UNL     1     -51.040  42.669  28.681  1.00  0.00    -0.014 C 
ATOM     32  H   UNL     1     -51.621  42.723  29.608  1.00  0.00     0.039 H 
ATOM     33  H   UNL     1     -51.316  43.557  28.102  1.00  0.00     0.039 H 
ATOM     34  H   UNL     1     -49.976  42.741  28.931  1.00  0.00     0.039 H 
ENDBRANCH  30  31
BRANCH  30  35
ATOM     35  C   UNL     1     -52.165  41.788  26.760  1.00  0.00    -0.014 C 
ATOM     36  H   UNL     1     -51.557  41.914  25.857  1.00  0.00     0.039 H 
ATOM     37  H   UNL     1     -52.910  41.008  26.571  1.00  0.00     0.039 H 
ATOM     38  H   UNL     1     -52.724  42.715  26.933  1.00  0.00     0.039 H 
ENDBRANCH  30  35
ENDBRANCH  27  30
ENDBRANCH  24  27
ENDBRANCH  22  24
ENDBRANCH   3  22
BRANCH   7  39
ATOM     39  O   UNL     1     -46.730  33.011  26.028  1.00  0.00    -0.489 OA
BRANCH  39  40
ATOM     40  C   UNL     1     -46.176  32.886  24.714  1.00  0.00     0.115 C 
ATOM     41  H   UNL     1     -45.081  32.955  24.740  1.00  0.00     0.076 H 
ATOM     42  H   UNL     1     -46.524  33.761  24.151  1.00  0.00     0.076 H 
BRANCH  40  43
ATOM     43  C   UNL     1     -46.651  31.661  23.976  1.00  0.00     0.010 A 
ATOM     44  C   UNL     1     -46.110  31.352  22.735  1.00  0.00     0.034 A 
ATOM     45  C   UNL     1     -47.671  30.829  24.459  1.00  0.00    -0.028 A 
ATOM     46  N   UNL     1     -46.496  30.298  21.988  1.00  0.00    -0.262 NA
ATOM     47  H   UNL     1     -45.329  31.959  22.287  1.00  0.00     0.084 H 
ATOM     48  C   UNL     1     -48.097  29.716  23.719  1.00  0.00     0.066 A 
ATOM     49  H   UNL     1     -48.121  31.086  25.413  1.00  0.00     0.065 H 
ATOM     50  C   UNL     1     -47.474  29.503  22.495  1.00  0.00     0.051 A 
ATOM     51  H   UNL     1     -47.705  28.669  21.843  1.00  0.00     0.086 H 
BRANCH  48  52
ATOM     52  N   UNL     1     -49.119  28.843  24.213  1.00  0.00    -0.300 N 
ATOM     53  C   UNL     1     -50.466  28.923  23.879  1.00  0.00     0.012 A 
ATOM     54  C   UNL     1     -48.982  27.773  25.102  1.00  0.00     0.150 A 
ATOM     55  C   UNL     1     -51.165  27.939  24.537  1.00  0.00    -0.031 A 
ATOM     56  H   UNL     1     -50.842  29.684  23.211  1.00  0.00     0.082 H 
ATOM     57  C   UNL     1     -50.237  27.208  25.314  1.00  0.00     0.061 A 
ATOM     58  N   UNL     1     -47.839  27.328  25.661  1.00  0.00    -0.218 NA
ATOM     59  H   UNL     1     -52.230  27.764  24.463  1.00  0.00     0.065 H 
ATOM     60  C   UNL     1     -50.310  26.109  26.183  1.00  0.00     0.136 A 
ATOM     61  C   UNL     1     -48.030  26.273  26.467  1.00  0.00     0.120 A 
ATOM     62  N   UNL     1     -49.186  25.653  26.760  1.00  0.00    -0.219 NA
ATOM     63  H   UNL     1     -47.142  25.869  26.943  1.00  0.00     0.106 H 
BRANCH  60  64
ATOM     64  N   UNL     1     -51.494  25.459  26.501  1.00  0.00    -0.383 N 
ATOM     65  H   UNL     1     -51.807  25.585  27.454  1.00  0.00     0.158 HD
ATOM     66  H   UNL     1     -51.477  24.506  26.157  1.00  0.00     0.158 HD
ENDBRANCH  60  64
ENDBRANCH  48  52
ENDBRANCH  40  43
ENDBRANCH  39  40
ENDBRANCH   7  39
TORSDOF 13
ENDMDL
