MODEL 1
REMARK VINA RESULT:     -11.1      0.000      0.000
REMARK SMILES c1cc(-n2cc(Cc3ccc4cc(CNCC5CCC5)[nH]c4c3)nn2)c2cn[nH]c2c1
REMARK SMILES IDX 8 1 9 2 10 3 11 4 12 5 13 6 21 7 22 8 23 9 7 15 6 18 4 19
REMARK SMILES IDX 5 20 25 21 24 23 3 24 1 25 2 26 31 27 30 30 26 32 29 33
REMARK SMILES IDX 27 34 28 35 14 38 15 41 16 43 17 46 18 47 20 48 19 50
REMARK H PARENT 9 10 10 11 12 12 21 13 23 14 7 16 7 17 5 22 1 28 2 29 31 31
REMARK H PARENT 29 36 27 37 14 39 14 40 15 42 16 44 16 45 17 49 18 51 18 52
REMARK H PARENT 20 53 20 54 19 55 19 56
REMARK Flexibility Score: inf
ROOT
ATOM      1  C   UNL     1     -47.850  35.831  26.959  1.00  0.00    -0.040 A 
ATOM      2  C   UNL     1     -46.565  35.609  26.443  1.00  0.00    -0.058 A 
ATOM      3  C   UNL     1     -46.230  34.398  25.824  1.00  0.00    -0.053 A 
ATOM      4  C   UNL     1     -47.200  33.386  25.717  1.00  0.00    -0.000 A 
ATOM      5  C   UNL     1     -47.207  32.074  25.171  1.00  0.00    -0.032 A 
ATOM      6  C   UNL     1     -48.464  31.532  25.363  1.00  0.00     0.030 A 
ATOM      7  N   UNL     1     -49.216  32.484  26.009  1.00  0.00    -0.357 N 
ATOM      8  C   UNL     1     -48.472  33.620  26.232  1.00  0.00     0.046 A 
ATOM      9  C   UNL     1     -48.829  34.825  26.852  1.00  0.00    -0.034 A 
ATOM     10  H   UNL     1     -45.802  36.382  26.518  1.00  0.00     0.063 H 
ATOM     11  H   UNL     1     -45.230  34.242  25.430  1.00  0.00     0.063 H 
ATOM     12  H   UNL     1     -46.378  31.568  24.694  1.00  0.00     0.065 H 
ATOM     13  H   UNL     1     -50.181  32.374  26.291  1.00  0.00     0.166 HD
ATOM     14  H   UNL     1     -49.828  34.974  27.251  1.00  0.00     0.065 H 
ENDROOT
BRANCH   1  15
ATOM     15  C   UNL     1     -48.183  37.145  27.628  1.00  0.00     0.018 C 
ATOM     16  H   UNL     1     -48.625  37.853  26.919  1.00  0.00     0.038 H 
ATOM     17  H   UNL     1     -48.917  36.983  28.426  1.00  0.00     0.038 H 
BRANCH  15  18
ATOM     18  C   UNL     1     -46.904  37.674  28.165  1.00  0.00     0.088 A 
ATOM     19  N   UNL     1     -45.084  38.798  28.634  1.00  0.00    -0.220 N 
ATOM     20  C   UNL     1     -46.192  38.804  27.822  1.00  0.00     0.055 A 
ATOM     21  N   UNL     1     -45.170  37.739  29.482  1.00  0.00    -0.062 NA
ATOM     22  H   UNL     1     -46.403  39.568  27.097  1.00  0.00     0.086 H 
ATOM     23  N   UNL     1     -46.259  37.042  29.189  1.00  0.00    -0.135 NA
BRANCH  19  24
ATOM     24  C   UNL     1     -43.991  39.702  28.696  1.00  0.00     0.077 A 
ATOM     25  C   UNL     1     -42.038  40.487  29.957  1.00  0.00    -0.058 A 
ATOM     26  C   UNL     1     -43.116  39.616  29.806  1.00  0.00    -0.035 A 
ATOM     27  C   UNL     1     -41.780  41.476  29.011  1.00  0.00    -0.036 A 
ATOM     28  H   UNL     1     -41.392  40.394  30.828  1.00  0.00     0.062 H 
ATOM     29  H   UNL     1     -43.275  38.867  30.582  1.00  0.00     0.065 H 
ATOM     30  C   UNL     1     -42.635  41.543  27.906  1.00  0.00     0.067 A 
ATOM     31  H   UNL     1     -40.942  42.154  29.128  1.00  0.00     0.065 H 
ATOM     32  C   UNL     1     -43.724  40.687  27.713  1.00  0.00     0.045 A 
ATOM     33  N   UNL     1     -42.619  42.384  26.825  1.00  0.00    -0.278 N 
ATOM     34  C   UNL     1     -44.238  41.104  26.458  1.00  0.00     0.059 A 
ATOM     35  N   UNL     1     -43.584  42.140  25.930  1.00  0.00    -0.183 NA
ATOM     36  H   UNL     1     -41.966  43.136  26.637  1.00  0.00     0.190 HD
ATOM     37  H   UNL     1     -45.060  40.700  25.883  1.00  0.00     0.087 H 
ENDBRANCH  19  24
ENDBRANCH  15  18
ENDBRANCH   1  15
BRANCH   6  38
ATOM     38  C   UNL     1     -49.018  30.202  24.988  1.00  0.00     0.036 C 
ATOM     39  H   UNL     1     -49.963  30.028  25.517  1.00  0.00     0.049 H 
ATOM     40  H   UNL     1     -49.231  30.195  23.913  1.00  0.00     0.049 H 
BRANCH  38  41
ATOM     41  N   UNL     1     -48.046  29.169  25.321  1.00  0.00    -0.311 NA
ATOM     42  H   UNL     1     -47.719  29.315  26.274  1.00  0.00     0.123 HD
BRANCH  41  43
ATOM     43  C   UNL     1     -48.622  27.833  25.187  1.00  0.00    -0.002 C 
ATOM     44  H   UNL     1     -49.711  27.876  25.302  1.00  0.00     0.043 H 
ATOM     45  H   UNL     1     -48.406  27.434  24.189  1.00  0.00     0.043 H 
BRANCH  43  46
ATOM     46  C   UNL     1     -48.014  26.904  26.231  1.00  0.00    -0.029 C 
ATOM     47  C   UNL     1     -46.763  26.104  25.774  1.00  0.00    -0.049 C 
ATOM     48  C   UNL     1     -48.699  25.526  26.450  1.00  0.00    -0.049 C 
ATOM     49  H   UNL     1     -47.829  27.430  27.179  1.00  0.00     0.032 H 
ATOM     50  C   UNL     1     -47.286  24.936  26.635  1.00  0.00    -0.053 C 
ATOM     51  H   UNL     1     -45.798  26.520  26.078  1.00  0.00     0.027 H 
ATOM     52  H   UNL     1     -46.732  25.878  24.702  1.00  0.00     0.027 H 
ATOM     53  H   UNL     1     -49.358  25.457  27.319  1.00  0.00     0.027 H 
ATOM     54  H   UNL     1     -49.226  25.135  25.571  1.00  0.00     0.027 H 
ATOM     55  H   UNL     1     -47.131  23.935  26.224  1.00  0.00     0.027 H 
ATOM     56  H   UNL     1     -46.931  24.957  27.671  1.00  0.00     0.027 H 
ENDBRANCH  43  46
ENDBRANCH  41  43
ENDBRANCH  38  41
ENDBRANCH   6  38
TORSDOF 7
ENDMDL
MODEL 2
REMARK VINA RESULT:     -10.6      1.825      2.780
REMARK SMILES c1cc(-n2cc(Cc3ccc4cc(CNCC5CCC5)[nH]c4c3)nn2)c2cn[nH]c2c1
REMARK SMILES IDX 8 1 9 2 10 3 11 4 12 5 13 6 21 7 22 8 23 9 7 15 6 18 4 19
REMARK SMILES IDX 5 20 25 21 24 23 3 24 1 25 2 26 31 27 30 30 26 32 29 33
REMARK SMILES IDX 27 34 28 35 14 38 15 41 16 43 17 46 18 47 20 48 19 50
REMARK H PARENT 9 10 10 11 12 12 21 13 23 14 7 16 7 17 5 22 1 28 2 29 31 31
REMARK H PARENT 29 36 27 37 14 39 14 40 15 42 16 44 16 45 17 49 18 51 18 52
REMARK H PARENT 20 53 20 54 19 55 19 56
REMARK Flexibility Score: inf
ROOT
ATOM      1  C   UNL     1     -46.896  35.543  28.307  1.00  0.00    -0.040 A 
ATOM      2  C   UNL     1     -48.218  35.608  27.844  1.00  0.00    -0.058 A 
ATOM      3  C   UNL     1     -48.649  34.825  26.765  1.00  0.00    -0.053 A 
ATOM      4  C   UNL     1     -47.739  33.960  26.133  1.00  0.00    -0.000 A 
ATOM      5  C   UNL     1     -47.828  33.053  25.042  1.00  0.00    -0.032 A 
ATOM      6  C   UNL     1     -46.588  32.470  24.862  1.00  0.00     0.030 A 
ATOM      7  N   UNL     1     -45.753  33.001  25.816  1.00  0.00    -0.357 N 
ATOM      8  C   UNL     1     -46.429  33.905  26.602  1.00  0.00     0.046 A 
ATOM      9  C   UNL     1     -45.979  34.677  27.683  1.00  0.00    -0.034 A 
ATOM     10  H   UNL     1     -48.935  36.273  28.322  1.00  0.00     0.063 H 
ATOM     11  H   UNL     1     -49.676  34.887  26.419  1.00  0.00     0.063 H 
ATOM     12  H   UNL     1     -48.704  32.850  24.441  1.00  0.00     0.065 H 
ATOM     13  H   UNL     1     -44.775  32.770  25.930  1.00  0.00     0.166 HD
ATOM     14  H   UNL     1     -44.948  34.617  28.021  1.00  0.00     0.065 H 
ENDROOT
BRANCH   1  15
ATOM     15  C   UNL     1     -46.455  36.403  29.469  1.00  0.00     0.018 C 
ATOM     16  H   UNL     1     -47.244  36.490  30.223  1.00  0.00     0.038 H 
ATOM     17  H   UNL     1     -45.585  35.951  29.961  1.00  0.00     0.038 H 
BRANCH  15  18
ATOM     18  C   UNL     1     -46.127  37.735  28.901  1.00  0.00     0.088 A 
ATOM     19  N   UNL     1     -45.204  39.521  28.034  1.00  0.00    -0.220 N 
ATOM     20  C   UNL     1     -44.931  38.236  28.434  1.00  0.00     0.055 A 
ATOM     21  N   UNL     1     -46.535  39.753  28.189  1.00  0.00    -0.062 NA
ATOM     22  H   UNL     1     -43.963  37.776  28.361  1.00  0.00     0.086 H 
ATOM     23  N   UNL     1     -47.096  38.683  28.734  1.00  0.00    -0.135 NA
BRANCH  19  24
ATOM     24  C   UNL     1     -44.343  40.515  27.500  1.00  0.00     0.077 A 
ATOM     25  C   UNL     1     -43.882  42.066  25.655  1.00  0.00    -0.058 A 
ATOM     26  C   UNL     1     -44.690  41.105  26.260  1.00  0.00    -0.035 A 
ATOM     27  C   UNL     1     -42.699  42.486  26.256  1.00  0.00    -0.036 A 
ATOM     28  H   UNL     1     -44.180  42.490  24.697  1.00  0.00     0.062 H 
ATOM     29  H   UNL     1     -45.601  40.808  25.739  1.00  0.00     0.065 H 
ATOM     30  C   UNL     1     -42.371  41.916  27.491  1.00  0.00     0.067 A 
ATOM     31  H   UNL     1     -42.069  43.233  25.785  1.00  0.00     0.065 H 
ATOM     32  C   UNL     1     -43.155  40.954  28.135  1.00  0.00     0.045 A 
ATOM     33  N   UNL     1     -41.298  42.143  28.312  1.00  0.00    -0.278 N 
ATOM     34  C   UNL     1     -42.451  40.731  29.347  1.00  0.00     0.059 A 
ATOM     35  N   UNL     1     -41.322  41.433  29.448  1.00  0.00    -0.183 NA
ATOM     36  H   UNL     1     -40.524  42.778  28.157  1.00  0.00     0.190 HD
ATOM     37  H   UNL     1     -42.707  40.094  30.183  1.00  0.00     0.087 H 
ENDBRANCH  19  24
ENDBRANCH  15  18
ENDBRANCH   1  15
BRANCH   6  38
ATOM     38  C   UNL     1     -46.122  31.457  23.875  1.00  0.00     0.036 C 
ATOM     39  H   UNL     1     -45.126  31.725  23.505  1.00  0.00     0.049 H 
ATOM     40  H   UNL     1     -46.043  30.485  24.373  1.00  0.00     0.049 H 
BRANCH  38  41
ATOM     41  N   UNL     1     -47.077  31.388  22.776  1.00  0.00    -0.311 NA
ATOM     42  H   UNL     1     -46.695  31.884  21.973  1.00  0.00     0.123 HD
BRANCH  41  43
ATOM     43  C   UNL     1     -47.375  30.004  22.415  1.00  0.00    -0.002 C 
ATOM     44  H   UNL     1     -48.227  29.966  21.726  1.00  0.00     0.043 H 
ATOM     45  H   UNL     1     -46.511  29.560  21.905  1.00  0.00     0.043 H 
BRANCH  43  46
ATOM     46  C   UNL     1     -47.672  29.196  23.672  1.00  0.00    -0.029 C 
ATOM     47  C   UNL     1     -46.829  27.905  23.859  1.00  0.00    -0.049 C 
ATOM     48  C   UNL     1     -48.918  28.267  23.649  1.00  0.00    -0.049 C 
ATOM     49  H   UNL     1     -47.642  29.827  24.572  1.00  0.00     0.032 H 
ATOM     50  C   UNL     1     -48.088  27.258  24.470  1.00  0.00    -0.053 C 
ATOM     51  H   UNL     1     -45.970  27.993  24.530  1.00  0.00     0.027 H 
ATOM     52  H   UNL     1     -46.504  27.433  22.925  1.00  0.00     0.027 H 
ATOM     53  H   UNL     1     -49.810  28.658  24.144  1.00  0.00     0.027 H 
ATOM     54  H   UNL     1     -49.193  27.900  22.654  1.00  0.00     0.027 H 
ATOM     55  H   UNL     1     -48.247  26.204  24.229  1.00  0.00     0.027 H 
ATOM     56  H   UNL     1     -48.173  27.394  25.553  1.00  0.00     0.027 H 
ENDBRANCH  43  46
ENDBRANCH  41  43
ENDBRANCH  38  41
ENDBRANCH   6  38
TORSDOF 7
ENDMDL
MODEL 3
REMARK VINA RESULT:     -10.1      1.874      2.842
REMARK SMILES c1cc(-n2cc(Cc3ccc4cc(CNCC5CCC5)[nH]c4c3)nn2)c2cn[nH]c2c1
REMARK SMILES IDX 8 1 9 2 10 3 11 4 12 5 13 6 21 7 22 8 23 9 7 15 6 18 4 19
REMARK SMILES IDX 5 20 25 21 24 23 3 24 1 25 2 26 31 27 30 30 26 32 29 33
REMARK SMILES IDX 27 34 28 35 14 38 15 41 16 43 17 46 18 47 20 48 19 50
REMARK H PARENT 9 10 10 11 12 12 21 13 23 14 7 16 7 17 5 22 1 28 2 29 31 31
REMARK H PARENT 29 36 27 37 14 39 14 40 15 42 16 44 16 45 17 49 18 51 18 52
REMARK H PARENT 20 53 20 54 19 55 19 56
REMARK Flexibility Score: inf
ROOT
ATOM      1  C   UNL     1     -46.543  36.116  29.063  1.00  0.00    -0.040 A 
ATOM      2  C   UNL     1     -47.855  36.343  28.623  1.00  0.00    -0.058 A 
ATOM      3  C   UNL     1     -48.359  35.704  27.483  1.00  0.00    -0.053 A 
ATOM      4  C   UNL     1     -47.534  34.820  26.765  1.00  0.00    -0.000 A 
ATOM      5  C   UNL     1     -47.709  34.029  25.598  1.00  0.00    -0.032 A 
ATOM      6  C   UNL     1     -46.528  33.354  25.352  1.00  0.00     0.030 A 
ATOM      7  N   UNL     1     -45.645  33.717  26.341  1.00  0.00    -0.357 N 
ATOM      8  C   UNL     1     -46.233  34.604  27.213  1.00  0.00     0.046 A 
ATOM      9  C   UNL     1     -45.711  35.230  28.354  1.00  0.00    -0.034 A 
ATOM     10  H   UNL     1     -48.507  37.024  29.167  1.00  0.00     0.063 H 
ATOM     11  H   UNL     1     -49.377  35.891  27.155  1.00  0.00     0.063 H 
ATOM     12  H   UNL     1     -48.602  33.962  24.991  1.00  0.00     0.065 H 
ATOM     13  H   UNL     1     -44.693  33.389  26.423  1.00  0.00     0.166 HD
ATOM     14  H   UNL     1     -44.689  35.046  28.673  1.00  0.00     0.065 H 
ENDROOT
BRANCH   1  15
ATOM     15  C   UNL     1     -46.022  36.823  30.294  1.00  0.00     0.018 C 
ATOM     16  H   UNL     1     -46.841  37.204  30.912  1.00  0.00     0.038 H 
ATOM     17  H   UNL     1     -45.446  36.123  30.912  1.00  0.00     0.038 H 
BRANCH  15  18
ATOM     18  C   UNL     1     -45.175  37.940  29.805  1.00  0.00     0.088 A 
ATOM     19  N   UNL     1     -44.242  39.603  28.729  1.00  0.00    -0.220 N 
ATOM     20  C   UNL     1     -45.313  38.744  28.693  1.00  0.00     0.055 A 
ATOM     21  N   UNL     1     -43.529  39.367  29.863  1.00  0.00    -0.062 NA
ATOM     22  H   UNL     1     -46.070  38.757  27.932  1.00  0.00     0.086 H 
ATOM     23  N   UNL     1     -44.077  38.347  30.507  1.00  0.00    -0.135 NA
BRANCH  19  24
ATOM     24  C   UNL     1     -43.859  40.625  27.821  1.00  0.00     0.077 A 
ATOM     25  C   UNL     1     -42.051  42.041  26.956  1.00  0.00    -0.058 A 
ATOM     26  C   UNL     1     -42.501  41.024  27.797  1.00  0.00    -0.035 A 
ATOM     27  C   UNL     1     -42.929  42.701  26.101  1.00  0.00    -0.036 A 
ATOM     28  H   UNL     1     -41.000  42.324  26.973  1.00  0.00     0.062 H 
ATOM     29  H   UNL     1     -41.771  40.548  28.452  1.00  0.00     0.065 H 
ATOM     30  C   UNL     1     -44.265  42.289  26.112  1.00  0.00     0.067 A 
ATOM     31  H   UNL     1     -42.580  43.493  25.447  1.00  0.00     0.065 H 
ATOM     32  C   UNL     1     -44.757  41.271  26.935  1.00  0.00     0.045 A 
ATOM     33  N   UNL     1     -45.334  42.734  25.380  1.00  0.00    -0.278 N 
ATOM     34  C   UNL     1     -46.123  41.188  26.556  1.00  0.00     0.059 A 
ATOM     35  N   UNL     1     -46.477  42.082  25.632  1.00  0.00    -0.183 NA
ATOM     36  H   UNL     1     -45.343  43.471  24.685  1.00  0.00     0.190 HD
ATOM     37  H   UNL     1     -46.891  40.509  26.899  1.00  0.00     0.087 H 
ENDBRANCH  19  24
ENDBRANCH  15  18
ENDBRANCH   1  15
BRANCH   6  38
ATOM     38  C   UNL     1     -46.161  32.396  24.273  1.00  0.00     0.036 C 
ATOM     39  H   UNL     1     -46.590  32.725  23.319  1.00  0.00     0.049 H 
ATOM     40  H   UNL     1     -45.071  32.385  24.162  1.00  0.00     0.049 H 
BRANCH  38  41
ATOM     41  N   UNL     1     -46.649  31.069  24.626  1.00  0.00    -0.311 NA
ATOM     42  H   UNL     1     -47.433  31.164  25.270  1.00  0.00     0.123 HD
BRANCH  41  43
ATOM     43  C   UNL     1     -47.062  30.321  23.440  1.00  0.00    -0.002 C 
ATOM     44  H   UNL     1     -47.375  31.010  22.647  1.00  0.00     0.043 H 
ATOM     45  H   UNL     1     -46.219  29.733  23.060  1.00  0.00     0.043 H 
BRANCH  43  46
ATOM     46  C   UNL     1     -48.200  29.373  23.800  1.00  0.00    -0.029 C 
ATOM     47  C   UNL     1     -48.784  29.535  25.230  1.00  0.00    -0.049 C 
ATOM     48  C   UNL     1     -47.822  27.926  24.218  1.00  0.00    -0.049 C 
ATOM     49  H   UNL     1     -48.994  29.391  23.038  1.00  0.00     0.032 H 
ATOM     50  C   UNL     1     -48.967  28.004  25.249  1.00  0.00    -0.053 C 
ATOM     51  H   UNL     1     -49.704  30.122  25.302  1.00  0.00     0.027 H 
ATOM     52  H   UNL     1     -48.070  29.899  25.977  1.00  0.00     0.027 H 
ATOM     53  H   UNL     1     -47.934  27.163  23.444  1.00  0.00     0.027 H 
ATOM     54  H   UNL     1     -46.829  27.829  24.674  1.00  0.00     0.027 H 
ATOM     55  H   UNL     1     -48.779  27.513  26.207  1.00  0.00     0.027 H 
ATOM     56  H   UNL     1     -49.935  27.670  24.859  1.00  0.00     0.027 H 
ENDBRANCH  43  46
ENDBRANCH  41  43
ENDBRANCH  38  41
ENDBRANCH   6  38
TORSDOF 7
ENDMDL
MODEL 4
REMARK VINA RESULT:     -10.0      2.177      3.211
REMARK SMILES c1cc(-n2cc(Cc3ccc4cc(CNCC5CCC5)[nH]c4c3)nn2)c2cn[nH]c2c1
REMARK SMILES IDX 8 1 9 2 10 3 11 4 12 5 13 6 21 7 22 8 23 9 7 15 6 18 4 19
REMARK SMILES IDX 5 20 25 21 24 23 3 24 1 25 2 26 31 27 30 30 26 32 29 33
REMARK SMILES IDX 27 34 28 35 14 38 15 41 16 43 17 46 18 47 20 48 19 50
REMARK H PARENT 9 10 10 11 12 12 21 13 23 14 7 16 7 17 5 22 1 28 2 29 31 31
REMARK H PARENT 29 36 27 37 14 39 14 40 15 42 16 44 16 45 17 49 18 51 18 52
REMARK H PARENT 20 53 20 54 19 55 19 56
REMARK Flexibility Score: inf
ROOT
ATOM      1  C   UNL     1     -47.592  36.606  27.598  1.00  0.00    -0.040 A 
ATOM      2  C   UNL     1     -46.263  36.278  27.293  1.00  0.00    -0.058 A 
ATOM      3  C   UNL     1     -45.938  35.068  26.666  1.00  0.00    -0.053 A 
ATOM      4  C   UNL     1     -46.965  34.164  26.337  1.00  0.00    -0.000 A 
ATOM      5  C   UNL     1     -46.998  32.885  25.719  1.00  0.00    -0.032 A 
ATOM      6  C   UNL     1     -48.314  32.466  25.664  1.00  0.00     0.030 A 
ATOM      7  N   UNL     1     -49.076  33.459  26.231  1.00  0.00    -0.357 N 
ATOM      8  C   UNL     1     -48.280  34.503  26.644  1.00  0.00     0.046 A 
ATOM      9  C   UNL     1     -48.626  35.710  27.268  1.00  0.00    -0.034 A 
ATOM     10  H   UNL     1     -45.456  36.965  27.542  1.00  0.00     0.063 H 
ATOM     11  H   UNL     1     -44.905  34.828  26.438  1.00  0.00     0.063 H 
ATOM     12  H   UNL     1     -46.149  32.319  25.359  1.00  0.00     0.065 H 
ATOM     13  H   UNL     1     -50.080  33.435  26.339  1.00  0.00     0.166 HD
ATOM     14  H   UNL     1     -49.661  35.942  27.501  1.00  0.00     0.065 H 
ENDROOT
BRANCH   1  15
ATOM     15  C   UNL     1     -47.913  37.916  28.280  1.00  0.00     0.018 C 
ATOM     16  H   UNL     1     -48.976  38.164  28.187  1.00  0.00     0.038 H 
ATOM     17  H   UNL     1     -47.688  37.846  29.351  1.00  0.00     0.038 H 
BRANCH  15  18
ATOM     18  C   UNL     1     -47.077  38.947  27.615  1.00  0.00     0.088 A 
ATOM     19  N   UNL     1     -45.530  40.360  26.976  1.00  0.00    -0.220 N 
ATOM     20  C   UNL     1     -45.807  39.394  27.913  1.00  0.00     0.055 A 
ATOM     21  N   UNL     1     -46.572  40.434  26.105  1.00  0.00    -0.062 NA
ATOM     22  H   UNL     1     -45.124  39.091  28.684  1.00  0.00     0.086 H 
ATOM     23  N   UNL     1     -47.521  39.597  26.499  1.00  0.00    -0.135 NA
BRANCH  19  24
ATOM     24  C   UNL     1     -44.381  41.177  26.817  1.00  0.00     0.077 A 
ATOM     25  C   UNL     1     -43.195  42.816  25.428  1.00  0.00    -0.058 A 
ATOM     26  C   UNL     1     -44.303  42.006  25.672  1.00  0.00    -0.035 A 
ATOM     27  C   UNL     1     -42.119  42.840  26.312  1.00  0.00    -0.036 A 
ATOM     28  H   UNL     1     -43.169  43.433  24.532  1.00  0.00     0.062 H 
ATOM     29  H   UNL     1     -45.112  42.021  24.941  1.00  0.00     0.065 H 
ATOM     30  C   UNL     1     -42.210  42.035  27.452  1.00  0.00     0.067 A 
ATOM     31  H   UNL     1     -41.256  43.469  26.123  1.00  0.00     0.065 H 
ATOM     32  C   UNL     1     -43.304  41.213  27.738  1.00  0.00     0.045 A 
ATOM     33  N   UNL     1     -41.331  41.869  28.490  1.00  0.00    -0.278 N 
ATOM     34  C   UNL     1     -42.960  40.651  28.995  1.00  0.00     0.059 A 
ATOM     35  N   UNL     1     -41.762  41.031  29.441  1.00  0.00    -0.183 NA
ATOM     36  H   UNL     1     -40.426  42.310  28.610  1.00  0.00     0.190 HD
ATOM     37  H   UNL     1     -43.528  39.983  29.628  1.00  0.00     0.087 H 
ENDBRANCH  19  24
ENDBRANCH  15  18
ENDBRANCH   1  15
BRANCH   6  38
ATOM     38  C   UNL     1     -48.915  31.216  25.122  1.00  0.00     0.036 C 
ATOM     39  H   UNL     1     -49.685  30.842  25.808  1.00  0.00     0.049 H 
ATOM     40  H   UNL     1     -49.401  31.440  24.165  1.00  0.00     0.049 H 
BRANCH  38  41
ATOM     41  N   UNL     1     -47.865  30.222  24.937  1.00  0.00    -0.311 NA
ATOM     42  H   UNL     1     -47.738  29.709  25.808  1.00  0.00     0.123 HD
BRANCH  41  43
ATOM     43  C   UNL     1     -48.191  29.298  23.853  1.00  0.00    -0.002 C 
ATOM     44  H   UNL     1     -48.133  28.262  24.208  1.00  0.00     0.043 H 
ATOM     45  H   UNL     1     -49.217  29.477  23.509  1.00  0.00     0.043 H 
BRANCH  43  46
ATOM     46  C   UNL     1     -47.236  29.515  22.687  1.00  0.00    -0.029 C 
ATOM     47  C   UNL     1     -46.058  30.491  22.953  1.00  0.00    -0.049 C 
ATOM     48  C   UNL     1     -47.679  30.501  21.571  1.00  0.00    -0.049 C 
ATOM     49  H   UNL     1     -46.878  28.559  22.276  1.00  0.00     0.032 H 
ATOM     50  C   UNL     1     -46.207  30.954  21.489  1.00  0.00    -0.053 C 
ATOM     51  H   UNL     1     -45.102  30.024  23.206  1.00  0.00     0.027 H 
ATOM     52  H   UNL     1     -46.274  31.278  23.685  1.00  0.00     0.027 H 
ATOM     53  H   UNL     1     -48.083  30.042  20.665  1.00  0.00     0.027 H 
ATOM     54  H   UNL     1     -48.363  31.290  21.906  1.00  0.00     0.027 H 
ATOM     55  H   UNL     1     -46.047  32.020  21.308  1.00  0.00     0.027 H 
ATOM     56  H   UNL     1     -45.606  30.376  20.780  1.00  0.00     0.027 H 
ENDBRANCH  43  46
ENDBRANCH  41  43
ENDBRANCH  38  41
ENDBRANCH   6  38
TORSDOF 7
ENDMDL
MODEL 5
REMARK VINA RESULT:      -9.9      2.024      3.304
REMARK SMILES c1cc(-n2cc(Cc3ccc4cc(CNCC5CCC5)[nH]c4c3)nn2)c2cn[nH]c2c1
REMARK SMILES IDX 8 1 9 2 10 3 11 4 12 5 13 6 21 7 22 8 23 9 7 15 6 18 4 19
REMARK SMILES IDX 5 20 25 21 24 23 3 24 1 25 2 26 31 27 30 30 26 32 29 33
REMARK SMILES IDX 27 34 28 35 14 38 15 41 16 43 17 46 18 47 20 48 19 50
REMARK H PARENT 9 10 10 11 12 12 21 13 23 14 7 16 7 17 5 22 1 28 2 29 31 31
REMARK H PARENT 29 36 27 37 14 39 14 40 15 42 16 44 16 45 17 49 18 51 18 52
REMARK H PARENT 20 53 20 54 19 55 19 56
REMARK Flexibility Score: inf
ROOT
ATOM      1  C   UNL     1     -47.994  34.939  26.560  1.00  0.00    -0.040 A 
ATOM      2  C   UNL     1     -46.768  34.942  25.880  1.00  0.00    -0.058 A 
ATOM      3  C   UNL     1     -46.342  33.828  25.145  1.00  0.00    -0.053 A 
ATOM      4  C   UNL     1     -47.160  32.685  25.088  1.00  0.00    -0.000 A 
ATOM      5  C   UNL     1     -47.045  31.415  24.460  1.00  0.00    -0.032 A 
ATOM      6  C   UNL     1     -48.174  30.679  24.766  1.00  0.00     0.030 A 
ATOM      7  N   UNL     1     -48.968  31.471  25.560  1.00  0.00    -0.357 N 
ATOM      8  C   UNL     1     -48.375  32.696  25.767  1.00  0.00     0.046 A 
ATOM      9  C   UNL     1     -48.821  33.801  26.505  1.00  0.00    -0.034 A 
ATOM     10  H   UNL     1     -46.123  35.818  25.914  1.00  0.00     0.063 H 
ATOM     11  H   UNL     1     -45.390  33.846  24.624  1.00  0.00     0.063 H 
ATOM     12  H   UNL     1     -46.220  31.066  23.854  1.00  0.00     0.065 H 
ATOM     13  H   UNL     1     -49.861  31.201  25.947  1.00  0.00     0.166 HD
ATOM     14  H   UNL     1     -49.771  33.776  27.031  1.00  0.00     0.065 H 
ENDROOT
BRANCH   1  15
ATOM     15  C   UNL     1     -48.427  36.152  27.351  1.00  0.00     0.018 C 
ATOM     16  H   UNL     1     -49.175  36.737  26.807  1.00  0.00     0.038 H 
ATOM     17  H   UNL     1     -48.883  35.839  28.298  1.00  0.00     0.038 H 
BRANCH  15  18
ATOM     18  C   UNL     1     -47.201  36.958  27.580  1.00  0.00     0.088 A 
ATOM     19  N   UNL     1     -45.618  38.470  27.649  1.00  0.00    -0.220 N 
ATOM     20  C   UNL     1     -46.876  38.229  27.153  1.00  0.00     0.055 A 
ATOM     21  N   UNL     1     -45.235  37.407  28.406  1.00  0.00    -0.062 NA
ATOM     22  H   UNL     1     -47.438  38.933  26.569  1.00  0.00     0.086 H 
ATOM     23  N   UNL     1     -46.180  36.479  28.351  1.00  0.00    -0.135 NA
BRANCH  19  24
ATOM     24  C   UNL     1     -44.778  39.603  27.497  1.00  0.00     0.077 A 
ATOM     25  C   UNL     1     -44.108  41.497  26.088  1.00  0.00    -0.058 A 
ATOM     26  C   UNL     1     -44.915  40.387  26.326  1.00  0.00    -0.035 A 
ATOM     27  C   UNL     1     -43.133  41.881  27.005  1.00  0.00    -0.036 A 
ATOM     28  H   UNL     1     -44.240  42.069  25.170  1.00  0.00     0.062 H 
ATOM     29  H   UNL     1     -45.656  40.127  25.568  1.00  0.00     0.065 H 
ATOM     30  C   UNL     1     -43.015  41.118  28.170  1.00  0.00     0.067 A 
ATOM     31  H   UNL     1     -42.504  42.746  26.820  1.00  0.00     0.065 H 
ATOM     32  C   UNL     1     -43.807  40.000  28.451  1.00  0.00     0.045 A 
ATOM     33  N   UNL     1     -42.173  41.264  29.241  1.00  0.00    -0.278 N 
ATOM     34  C   UNL     1     -43.357  39.607  29.738  1.00  0.00     0.059 A 
ATOM     35  N   UNL     1     -42.359  40.356  30.209  1.00  0.00    -0.183 NA
ATOM     36  H   UNL     1     -41.459  41.970  29.374  1.00  0.00     0.190 HD
ATOM     37  H   UNL     1     -43.713  38.810  30.377  1.00  0.00     0.087 H 
ENDBRANCH  19  24
ENDBRANCH  15  18
ENDBRANCH   1  15
BRANCH   6  38
ATOM     38  C   UNL     1     -48.572  29.299  24.372  1.00  0.00     0.036 C 
ATOM     39  H   UNL     1     -48.273  28.586  25.150  1.00  0.00     0.049 H 
ATOM     40  H   UNL     1     -49.663  29.255  24.281  1.00  0.00     0.049 H 
BRANCH  38  41
ATOM     41  N   UNL     1     -47.943  28.965  23.100  1.00  0.00    -0.311 NA
ATOM     42  H   UNL     1     -47.158  28.339  23.273  1.00  0.00     0.123 HD
BRANCH  41  43
ATOM     43  C   UNL     1     -48.893  28.339  22.184  1.00  0.00    -0.002 C 
ATOM     44  H   UNL     1     -48.498  27.382  21.823  1.00  0.00     0.043 H 
ATOM     45  H   UNL     1     -49.835  28.136  22.707  1.00  0.00     0.043 H 
BRANCH  43  46
ATOM     46  C   UNL     1     -49.173  29.274  21.013  1.00  0.00    -0.029 C 
ATOM     47  C   UNL     1     -48.245  30.515  20.907  1.00  0.00    -0.049 C 
ATOM     48  C   UNL     1     -50.347  30.279  21.164  1.00  0.00    -0.049 C 
ATOM     49  H   UNL     1     -49.217  28.724  20.061  1.00  0.00     0.032 H 
ATOM     50  C   UNL     1     -49.475  31.298  20.402  1.00  0.00    -0.053 C 
ATOM     51  H   UNL     1     -47.417  30.429  20.199  1.00  0.00     0.027 H 
ATOM     52  H   UNL     1     -47.858  30.880  21.865  1.00  0.00     0.027 H 
ATOM     53  H   UNL     1     -51.281  29.996  20.671  1.00  0.00     0.027 H 
ATOM     54  H   UNL     1     -50.564  30.575  22.197  1.00  0.00     0.027 H 
ATOM     55  H   UNL     1     -49.550  32.336  20.740  1.00  0.00     0.027 H 
ATOM     56  H   UNL     1     -49.604  31.265  19.315  1.00  0.00     0.027 H 
ENDBRANCH  43  46
ENDBRANCH  41  43
ENDBRANCH  38  41
ENDBRANCH   6  38
TORSDOF 7
ENDMDL
MODEL 6
REMARK VINA RESULT:      -9.9      1.961      2.834
REMARK SMILES c1cc(-n2cc(Cc3ccc4cc(CNCC5CCC5)[nH]c4c3)nn2)c2cn[nH]c2c1
REMARK SMILES IDX 8 1 9 2 10 3 11 4 12 5 13 6 21 7 22 8 23 9 7 15 6 18 4 19
REMARK SMILES IDX 5 20 25 21 24 23 3 24 1 25 2 26 31 27 30 30 26 32 29 33
REMARK SMILES IDX 27 34 28 35 14 38 15 41 16 43 17 46 18 47 20 48 19 50
REMARK H PARENT 9 10 10 11 12 12 21 13 23 14 7 16 7 17 5 22 1 28 2 29 31 31
REMARK H PARENT 29 36 27 37 14 39 14 40 15 42 16 44 16 45 17 49 18 51 18 52
REMARK H PARENT 20 53 20 54 19 55 19 56
REMARK Flexibility Score: inf
ROOT
ATOM      1  C   UNL     1     -47.738  36.110  27.117  1.00  0.00    -0.040 A 
ATOM      2  C   UNL     1     -46.422  35.819  26.732  1.00  0.00    -0.058 A 
ATOM      3  C   UNL     1     -46.086  34.579  26.173  1.00  0.00    -0.053 A 
ATOM      4  C   UNL     1     -47.087  33.608  25.994  1.00  0.00    -0.000 A 
ATOM      5  C   UNL     1     -47.103  32.284  25.478  1.00  0.00    -0.032 A 
ATOM      6  C   UNL     1     -48.397  31.804  25.560  1.00  0.00     0.030 A 
ATOM      7  N   UNL     1     -49.162  32.803  26.111  1.00  0.00    -0.357 N 
ATOM      8  C   UNL     1     -48.391  33.911  26.381  1.00  0.00     0.046 A 
ATOM      9  C   UNL     1     -48.748  35.146  26.938  1.00  0.00    -0.034 A 
ATOM     10  H   UNL     1     -45.634  36.558  26.864  1.00  0.00     0.063 H 
ATOM     11  H   UNL     1     -45.062  34.369  25.881  1.00  0.00     0.063 H 
ATOM     12  H   UNL     1     -46.257  31.731  25.094  1.00  0.00     0.065 H 
ATOM     13  H   UNL     1     -50.153  32.743  26.301  1.00  0.00     0.166 HD
ATOM     14  H   UNL     1     -49.773  35.349  27.236  1.00  0.00     0.065 H 
ENDROOT
BRANCH   1  15
ATOM     15  C   UNL     1     -48.073  37.454  27.724  1.00  0.00     0.018 C 
ATOM     16  H   UNL     1     -48.505  38.131  26.980  1.00  0.00     0.038 H 
ATOM     17  H   UNL     1     -48.815  37.330  28.522  1.00  0.00     0.038 H 
BRANCH  15  18
ATOM     18  C   UNL     1     -46.797  38.002  28.248  1.00  0.00     0.088 A 
ATOM     19  N   UNL     1     -44.957  39.117  28.660  1.00  0.00    -0.220 N 
ATOM     20  C   UNL     1     -46.035  39.065  27.809  1.00  0.00     0.055 A 
ATOM     21  N   UNL     1     -45.109  38.163  29.617  1.00  0.00    -0.062 NA
ATOM     22  H   UNL     1     -46.194  39.749  26.997  1.00  0.00     0.086 H 
ATOM     23  N   UNL     1     -46.209  37.471  29.361  1.00  0.00    -0.135 NA
BRANCH  19  24
ATOM     24  C   UNL     1     -43.838  39.990  28.664  1.00  0.00     0.077 A 
ATOM     25  C   UNL     1     -41.823  40.749  29.841  1.00  0.00    -0.058 A 
ATOM     26  C   UNL     1     -42.929  39.907  29.747  1.00  0.00    -0.035 A 
ATOM     27  C   UNL     1     -41.568  41.706  28.862  1.00  0.00    -0.036 A 
ATOM     28  H   UNL     1     -41.152  40.659  30.694  1.00  0.00     0.062 H 
ATOM     29  H   UNL     1     -43.084  39.183  30.547  1.00  0.00     0.065 H 
ATOM     30  C   UNL     1     -42.456  41.770  27.784  1.00  0.00     0.067 A 
ATOM     31  H   UNL     1     -40.707  42.363  28.935  1.00  0.00     0.065 H 
ATOM     32  C   UNL     1     -43.575  40.942  27.648  1.00  0.00     0.045 A 
ATOM     33  N   UNL     1     -42.451  42.584  26.681  1.00  0.00    -0.278 N 
ATOM     34  C   UNL     1     -44.118  41.343  26.399  1.00  0.00     0.059 A 
ATOM     35  N   UNL     1     -43.452  42.345  25.824  1.00  0.00    -0.183 NA
ATOM     36  H   UNL     1     -41.784  43.311  26.453  1.00  0.00     0.190 HD
ATOM     37  H   UNL     1     -44.968  40.948  25.861  1.00  0.00     0.087 H 
ENDBRANCH  19  24
ENDBRANCH  15  18
ENDBRANCH   1  15
BRANCH   6  38
ATOM     38  C   UNL     1     -48.974  30.490  25.161  1.00  0.00     0.036 C 
ATOM     39  H   UNL     1     -48.169  29.784  24.924  1.00  0.00     0.049 H 
ATOM     40  H   UNL     1     -49.540  30.080  26.004  1.00  0.00     0.049 H 
BRANCH  38  41
ATOM     41  N   UNL     1     -49.846  30.682  24.009  1.00  0.00    -0.311 NA
ATOM     42  H   UNL     1     -50.534  31.400  24.230  1.00  0.00     0.123 HD
BRANCH  41  43
ATOM     43  C   UNL     1     -49.084  31.067  22.823  1.00  0.00    -0.002 C 
ATOM     44  H   UNL     1     -49.015  32.159  22.754  1.00  0.00     0.043 H 
ATOM     45  H   UNL     1     -48.064  30.671  22.893  1.00  0.00     0.043 H 
BRANCH  43  46
ATOM     46  C   UNL     1     -49.749  30.496  21.577  1.00  0.00    -0.029 C 
ATOM     47  C   UNL     1     -49.144  29.172  21.037  1.00  0.00    -0.049 C 
ATOM     48  C   UNL     1     -49.363  31.122  20.208  1.00  0.00    -0.049 C 
ATOM     49  H   UNL     1     -50.839  30.416  21.703  1.00  0.00     0.032 H 
ATOM     50  C   UNL     1     -49.443  29.699  19.618  1.00  0.00    -0.053 C 
ATOM     51  H   UNL     1     -49.672  28.258  21.322  1.00  0.00     0.027 H 
ATOM     52  H   UNL     1     -48.074  29.043  21.238  1.00  0.00     0.027 H 
ATOM     53  H   UNL     1     -50.075  31.844  19.799  1.00  0.00     0.027 H 
ATOM     54  H   UNL     1     -48.356  31.555  20.173  1.00  0.00     0.027 H 
ATOM     55  H   UNL     1     -48.700  29.459  18.854  1.00  0.00     0.027 H 
ATOM     56  H   UNL     1     -50.438  29.430  19.248  1.00  0.00     0.027 H 
ENDBRANCH  43  46
ENDBRANCH  41  43
ENDBRANCH  38  41
ENDBRANCH   6  38
TORSDOF 7
ENDMDL
MODEL 7
REMARK VINA RESULT:      -9.8      2.633      3.688
REMARK SMILES c1cc(-n2cc(Cc3ccc4cc(CNCC5CCC5)[nH]c4c3)nn2)c2cn[nH]c2c1
REMARK SMILES IDX 8 1 9 2 10 3 11 4 12 5 13 6 21 7 22 8 23 9 7 15 6 18 4 19
REMARK SMILES IDX 5 20 25 21 24 23 3 24 1 25 2 26 31 27 30 30 26 32 29 33
REMARK SMILES IDX 27 34 28 35 14 38 15 41 16 43 17 46 18 47 20 48 19 50
REMARK H PARENT 9 10 10 11 12 12 21 13 23 14 7 16 7 17 5 22 1 28 2 29 31 31
REMARK H PARENT 29 36 27 37 14 39 14 40 15 42 16 44 16 45 17 49 18 51 18 52
REMARK H PARENT 20 53 20 54 19 55 19 56
REMARK Flexibility Score: inf
ROOT
ATOM      1  C   UNL     1     -46.678  36.940  28.445  1.00  0.00    -0.040 A 
ATOM      2  C   UNL     1     -48.053  36.838  28.190  1.00  0.00    -0.058 A 
ATOM      3  C   UNL     1     -48.563  35.852  27.336  1.00  0.00    -0.053 A 
ATOM      4  C   UNL     1     -47.679  34.948  26.721  1.00  0.00    -0.000 A 
ATOM      5  C   UNL     1     -47.842  33.859  25.822  1.00  0.00    -0.032 A 
ATOM      6  C   UNL     1     -46.594  33.333  25.549  1.00  0.00     0.030 A 
ATOM      7  N   UNL     1     -45.682  34.074  26.261  1.00  0.00    -0.357 N 
ATOM      8  C   UNL     1     -46.316  35.059  26.983  1.00  0.00     0.046 A 
ATOM      9  C   UNL     1     -45.786  36.036  27.838  1.00  0.00    -0.034 A 
ATOM     10  H   UNL     1     -48.751  37.531  28.657  1.00  0.00     0.063 H 
ATOM     11  H   UNL     1     -49.630  35.787  27.148  1.00  0.00     0.063 H 
ATOM     12  H   UNL     1     -48.774  33.498  25.407  1.00  0.00     0.065 H 
ATOM     13  H   UNL     1     -44.681  33.929  26.258  1.00  0.00     0.166 HD
ATOM     14  H   UNL     1     -44.716  36.101  28.016  1.00  0.00     0.065 H 
ENDROOT
BRANCH   1  15
ATOM     15  C   UNL     1     -46.153  38.017  29.367  1.00  0.00     0.018 C 
ATOM     16  H   UNL     1     -46.910  38.320  30.098  1.00  0.00     0.038 H 
ATOM     17  H   UNL     1     -45.290  37.641  29.930  1.00  0.00     0.038 H 
BRANCH  15  18
ATOM     18  C   UNL     1     -45.779  39.161  28.499  1.00  0.00     0.088 A 
ATOM     19  N   UNL     1     -44.783  40.713  27.318  1.00  0.00    -0.220 N 
ATOM     20  C   UNL     1     -44.538  39.624  28.118  1.00  0.00     0.055 A 
ATOM     21  N   UNL     1     -46.128  40.851  27.169  1.00  0.00    -0.062 NA
ATOM     22  H   UNL     1     -43.555  39.257  28.349  1.00  0.00     0.086 H 
ATOM     23  N   UNL     1     -46.737  39.928  27.899  1.00  0.00    -0.135 NA
BRANCH  19  24
ATOM     24  C   UNL     1     -43.879  41.596  26.672  1.00  0.00     0.077 A 
ATOM     25  C   UNL     1     -41.547  42.303  26.379  1.00  0.00    -0.058 A 
ATOM     26  C   UNL     1     -42.497  41.457  26.948  1.00  0.00    -0.035 A 
ATOM     27  C   UNL     1     -41.928  43.320  25.508  1.00  0.00    -0.036 A 
ATOM     28  H   UNL     1     -40.494  42.168  26.623  1.00  0.00     0.062 H 
ATOM     29  H   UNL     1     -42.142  40.684  27.631  1.00  0.00     0.065 H 
ATOM     30  C   UNL     1     -43.291  43.441  25.221  1.00  0.00     0.067 A 
ATOM     31  H   UNL     1     -41.189  43.980  25.064  1.00  0.00     0.065 H 
ATOM     32  C   UNL     1     -44.276  42.611  25.766  1.00  0.00     0.045 A 
ATOM     33  N   UNL     1     -43.948  44.319  24.400  1.00  0.00    -0.278 N 
ATOM     34  C   UNL     1     -45.465  43.081  25.150  1.00  0.00     0.059 A 
ATOM     35  N   UNL     1     -45.272  44.123  24.340  1.00  0.00    -0.183 NA
ATOM     36  H   UNL     1     -43.546  45.066  23.847  1.00  0.00     0.190 HD
ATOM     37  H   UNL     1     -46.477  42.711  25.237  1.00  0.00     0.087 H 
ENDBRANCH  19  24
ENDBRANCH  15  18
ENDBRANCH   1  15
BRANCH   6  38
ATOM     38  C   UNL     1     -46.186  32.192  24.683  1.00  0.00     0.036 C 
ATOM     39  H   UNL     1     -46.096  32.526  23.642  1.00  0.00     0.049 H 
ATOM     40  H   UNL     1     -45.202  31.834  25.005  1.00  0.00     0.049 H 
BRANCH  38  41
ATOM     41  N   UNL     1     -47.176  31.129  24.797  1.00  0.00    -0.311 NA
ATOM     42  H   UNL     1     -48.086  31.542  24.993  1.00  0.00     0.123 HD
BRANCH  41  43
ATOM     43  C   UNL     1     -47.241  30.328  23.576  1.00  0.00    -0.002 C 
ATOM     44  H   UNL     1     -46.595  30.761  22.804  1.00  0.00     0.043 H 
ATOM     45  H   UNL     1     -46.885  29.312  23.780  1.00  0.00     0.043 H 
BRANCH  43  46
ATOM     46  C   UNL     1     -48.682  30.256  23.084  1.00  0.00    -0.029 C 
ATOM     47  C   UNL     1     -48.915  30.709  21.617  1.00  0.00    -0.049 C 
ATOM     48  C   UNL     1     -49.638  31.409  23.495  1.00  0.00    -0.049 C 
ATOM     49  H   UNL     1     -49.121  29.265  23.272  1.00  0.00     0.032 H 
ATOM     50  C   UNL     1     -50.263  31.292  22.090  1.00  0.00    -0.053 C 
ATOM     51  H   UNL     1     -48.981  29.906  20.878  1.00  0.00     0.027 H 
ATOM     52  H   UNL     1     -48.213  31.469  21.256  1.00  0.00     0.027 H 
ATOM     53  H   UNL     1     -50.310  31.193  24.330  1.00  0.00     0.027 H 
ATOM     54  H   UNL     1     -49.142  32.370  23.675  1.00  0.00     0.027 H 
ATOM     55  H   UNL     1     -50.565  32.233  21.623  1.00  0.00     0.027 H 
ATOM     56  H   UNL     1     -51.095  30.582  22.034  1.00  0.00     0.027 H 
ENDBRANCH  43  46
ENDBRANCH  41  43
ENDBRANCH  38  41
ENDBRANCH   6  38
TORSDOF 7
ENDMDL
