MODEL 1
REMARK VINA RESULT:      -9.2      0.000      0.000
REMARK SMILES CNc1cc(N2CCC3(CC2)CN(c2cc(F)c(CN4CCC(C)(C)CC4)cc2F)CC(=O)N3)ncn1
REMARK SMILES IDX 6 1 7 2 8 3 9 4 10 5 11 6 12 7 13 8 31 9 32 10 33 11 34 12
REMARK SMILES IDX 5 26 3 27 4 28 37 29 36 31 35 32 2 34 1 36 14 40 15 41 29 42
REMARK SMILES IDX 16 43 28 45 30 46 17 47 18 48 19 50 20 53 21 54 27 55 22 56
REMARK SMILES IDX 26 59 23 62 24 67 25 71
REMARK H PARENT 7 13 7 14 8 15 8 16 10 17 10 18 11 19 11 20 12 21 12 22 31 23
REMARK H PARENT 31 24 34 25 4 30 36 33 2 35 1 37 1 38 1 39 15 44 28 49 19 51
REMARK H PARENT 19 52 21 57 21 58 27 60 27 61 22 63 22 64 26 65 26 66 24 68
REMARK H PARENT 24 69 24 70 25 72 25 73 25 74
REMARK Flexibility Score: inf
ROOT
ATOM      1  N   UNL     1     -45.590  40.034  26.912  1.00  0.00    -0.356 N 
ATOM      2  C   UNL     1     -44.780  38.849  27.228  1.00  0.00     0.021 C 
ATOM      3  C   UNL     1     -45.520  37.591  26.780  1.00  0.00    -0.010 C 
ATOM      4  C   UNL     1     -46.942  37.497  27.380  1.00  0.00     0.061 C 
ATOM      5  C   UNL     1     -47.701  38.816  27.133  1.00  0.00    -0.010 C 
ATOM      6  C   UNL     1     -46.904  40.044  27.570  1.00  0.00     0.021 C 
ATOM      7  C   UNL     1     -47.726  36.344  26.681  1.00  0.00     0.042 C 
ATOM      8  N   UNL     1     -47.086  35.052  26.993  1.00  0.00    -0.357 N 
ATOM      9  C   UNL     1     -47.042  34.749  28.450  1.00  0.00     0.097 C 
ATOM     10  C   UNL     1     -46.682  35.957  29.330  1.00  0.00     0.240 C 
ATOM     11  O   UNL     1     -46.304  35.830  30.495  1.00  0.00    -0.273 OA
ATOM     12  N   UNL     1     -46.870  37.220  28.825  1.00  0.00    -0.347 N 
ATOM     13  H   UNL     1     -43.815  38.868  26.707  1.00  0.00     0.049 H 
ATOM     14  H   UNL     1     -44.567  38.805  28.304  1.00  0.00     0.049 H 
ATOM     15  H   UNL     1     -44.918  36.715  27.049  1.00  0.00     0.031 H 
ATOM     16  H   UNL     1     -45.589  37.604  25.683  1.00  0.00     0.031 H 
ATOM     17  H   UNL     1     -48.664  38.808  27.659  1.00  0.00     0.031 H 
ATOM     18  H   UNL     1     -47.924  38.913  26.062  1.00  0.00     0.031 H 
ATOM     19  H   UNL     1     -47.474  40.935  27.275  1.00  0.00     0.049 H 
ATOM     20  H   UNL     1     -46.801  40.057  28.662  1.00  0.00     0.049 H 
ATOM     21  H   UNL     1     -47.729  36.521  25.598  1.00  0.00     0.052 H 
ATOM     22  H   UNL     1     -48.765  36.340  27.038  1.00  0.00     0.052 H 
ATOM     23  H   UNL     1     -48.021  34.385  28.787  1.00  0.00     0.060 H 
ATOM     24  H   UNL     1     -46.285  33.984  28.657  1.00  0.00     0.060 H 
ATOM     25  H   UNL     1     -46.550  37.943  29.460  1.00  0.00     0.164 HD
ENDROOT
BRANCH   1  26
ATOM     26  C   UNL     1     -44.870  41.235  27.129  1.00  0.00     0.134 A 
ATOM     27  C   UNL     1     -43.000  42.378  28.035  1.00  0.00     0.131 A 
ATOM     28  C   UNL     1     -43.682  41.193  27.842  1.00  0.00     0.023 A 
ATOM     29  N   UNL     1     -43.438  43.539  27.537  1.00  0.00    -0.219 NA
ATOM     30  H   UNL     1     -43.281  40.254  28.199  1.00  0.00     0.070 H 
ATOM     31  C   UNL     1     -44.582  43.483  26.846  1.00  0.00     0.120 A 
ATOM     32  N   UNL     1     -45.325  42.391  26.620  1.00  0.00    -0.219 NA
ATOM     33  H   UNL     1     -44.946  44.416  26.429  1.00  0.00     0.106 H 
BRANCH  27  34
ATOM     34  N   UNL     1     -41.788  42.439  28.728  1.00  0.00    -0.373 N 
ATOM     35  H   UNL     1     -41.879  43.261  29.326  1.00  0.00     0.161 HD
BRANCH  34  36
ATOM     36  C   UNL     1     -41.469  41.248  29.496  1.00  0.00     0.005 C 
ATOM     37  H   UNL     1     -42.132  41.139  30.363  1.00  0.00     0.045 H 
ATOM     38  H   UNL     1     -40.443  41.330  29.870  1.00  0.00     0.045 H 
ATOM     39  H   UNL     1     -41.522  40.344  28.883  1.00  0.00     0.045 H 
ENDBRANCH  34  36
ENDBRANCH  27  34
ENDBRANCH   1  26
BRANCH   8  40
ATOM     40  C   UNL     1     -47.451  33.936  26.212  1.00  0.00     0.076 A 
ATOM     41  C   UNL     1     -46.449  33.261  25.491  1.00  0.00     0.001 A 
ATOM     42  C   UNL     1     -48.764  33.444  26.070  1.00  0.00     0.147 A 
ATOM     43  C   UNL     1     -46.748  32.158  24.688  1.00  0.00     0.129 A 
ATOM     44  H   UNL     1     -45.419  33.602  25.526  1.00  0.00     0.068 H 
ATOM     45  C   UNL     1     -49.062  32.339  25.269  1.00  0.00    -0.017 A 
ATOM     46  F   UNL     1     -49.786  34.008  26.734  1.00  0.00    -0.205 F 
ATOM     47  F   UNL     1     -45.745  31.556  24.032  1.00  0.00    -0.207 F 
ATOM     48  C   UNL     1     -48.052  31.685  24.553  1.00  0.00     0.005 A 
ATOM     49  H   UNL     1     -50.093  31.998  25.203  1.00  0.00     0.066 H 
BRANCH  48  50
ATOM     50  C   UNL     1     -48.349  30.474  23.702  1.00  0.00     0.026 C 
ATOM     51  H   UNL     1     -47.664  30.532  22.845  1.00  0.00     0.048 H 
ATOM     52  H   UNL     1     -49.367  30.521  23.294  1.00  0.00     0.048 H 
BRANCH  50  53
ATOM     53  N   UNL     1     -48.148  29.201  24.411  1.00  0.00    -0.299 NA
ATOM     54  C   UNL     1     -48.588  28.069  23.582  1.00  0.00    -0.001 C 
ATOM     55  C   UNL     1     -48.790  29.178  25.726  1.00  0.00    -0.001 C 
ATOM     56  C   UNL     1     -48.957  26.812  24.385  1.00  0.00    -0.035 C 
ATOM     57  H   UNL     1     -47.779  27.825  22.882  1.00  0.00     0.043 H 
ATOM     58  H   UNL     1     -49.461  28.336  22.972  1.00  0.00     0.043 H 
ATOM     59  C   UNL     1     -48.308  27.964  26.534  1.00  0.00    -0.035 C 
ATOM     60  H   UNL     1     -49.884  29.159  25.625  1.00  0.00     0.043 H 
ATOM     61  H   UNL     1     -48.549  30.076  26.309  1.00  0.00     0.043 H 
ATOM     62  C   UNL     1     -48.152  26.671  25.691  1.00  0.00    -0.033 C 
ATOM     63  H   UNL     1     -50.027  26.858  24.630  1.00  0.00     0.029 H 
ATOM     64  H   UNL     1     -48.827  25.925  23.751  1.00  0.00     0.029 H 
ATOM     65  H   UNL     1     -49.024  27.808  27.351  1.00  0.00     0.029 H 
ATOM     66  H   UNL     1     -47.354  28.210  27.019  1.00  0.00     0.029 H 
BRANCH  62  67
ATOM     67  C   UNL     1     -46.663  26.417  25.378  1.00  0.00    -0.060 C 
ATOM     68  H   UNL     1     -46.304  27.099  24.598  1.00  0.00     0.024 H 
ATOM     69  H   UNL     1     -46.025  26.554  26.257  1.00  0.00     0.024 H 
ATOM     70  H   UNL     1     -46.506  25.393  25.019  1.00  0.00     0.024 H 
ENDBRANCH  62  67
BRANCH  62  71
ATOM     71  C   UNL     1     -48.679  25.464  26.489  1.00  0.00    -0.060 C 
ATOM     72  H   UNL     1     -48.626  24.545  25.896  1.00  0.00     0.024 H 
ATOM     73  H   UNL     1     -49.723  25.611  26.784  1.00  0.00     0.024 H 
ATOM     74  H   UNL     1     -48.091  25.305  27.400  1.00  0.00     0.024 H 
ENDBRANCH  62  71
ENDBRANCH  50  53
ENDBRANCH  48  50
ENDBRANCH   8  40
TORSDOF 8
ENDMDL
MODEL 2
REMARK VINA RESULT:      -8.9      2.956     11.393
REMARK SMILES CNc1cc(N2CCC3(CC2)CN(c2cc(F)c(CN4CCC(C)(C)CC4)cc2F)CC(=O)N3)ncn1
REMARK SMILES IDX 6 1 7 2 8 3 9 4 10 5 11 6 12 7 13 8 31 9 32 10 33 11 34 12
REMARK SMILES IDX 5 26 3 27 4 28 37 29 36 31 35 32 2 34 1 36 14 40 15 41 29 42
REMARK SMILES IDX 16 43 28 45 30 46 17 47 18 48 19 50 20 53 21 54 27 55 22 56
REMARK SMILES IDX 26 59 23 62 24 67 25 71
REMARK H PARENT 7 13 7 14 8 15 8 16 10 17 10 18 11 19 11 20 12 21 12 22 31 23
REMARK H PARENT 31 24 34 25 4 30 36 33 2 35 1 37 1 38 1 39 15 44 28 49 19 51
REMARK H PARENT 19 52 21 57 21 58 27 60 27 61 22 63 22 64 26 65 26 66 24 68
REMARK H PARENT 24 69 24 70 25 72 25 73 25 74
REMARK Flexibility Score: inf
ROOT
ATOM      1  N   UNL     1     -48.275  30.928  24.147  1.00  0.00    -0.356 N 
ATOM      2  C   UNL     1     -48.775  31.238  25.495  1.00  0.00     0.021 C 
ATOM      3  C   UNL     1     -48.444  32.688  25.840  1.00  0.00    -0.010 C 
ATOM      4  C   UNL     1     -46.935  32.999  25.697  1.00  0.00     0.061 C 
ATOM      5  C   UNL     1     -46.436  32.532  24.314  1.00  0.00    -0.010 C 
ATOM      6  C   UNL     1     -46.821  31.087  24.006  1.00  0.00     0.021 C 
ATOM      7  C   UNL     1     -46.709  34.538  25.804  1.00  0.00     0.042 C 
ATOM      8  N   UNL     1     -47.074  34.997  27.158  1.00  0.00    -0.357 N 
ATOM      9  C   UNL     1     -46.280  34.348  28.238  1.00  0.00     0.097 C 
ATOM     10  C   UNL     1     -46.054  32.842  28.029  1.00  0.00     0.240 C 
ATOM     11  O   UNL     1     -45.699  32.099  28.945  1.00  0.00    -0.273 OA
ATOM     12  N   UNL     1     -46.171  32.327  26.762  1.00  0.00    -0.347 N 
ATOM     13  H   UNL     1     -49.865  31.125  25.557  1.00  0.00     0.049 H 
ATOM     14  H   UNL     1     -48.335  30.558  26.234  1.00  0.00     0.049 H 
ATOM     15  H   UNL     1     -48.795  32.896  26.857  1.00  0.00     0.031 H 
ATOM     16  H   UNL     1     -49.014  33.343  25.166  1.00  0.00     0.031 H 
ATOM     17  H   UNL     1     -45.346  32.635  24.247  1.00  0.00     0.031 H 
ATOM     18  H   UNL     1     -46.864  33.178  23.536  1.00  0.00     0.031 H 
ATOM     19  H   UNL     1     -46.510  30.870  22.976  1.00  0.00     0.049 H 
ATOM     20  H   UNL     1     -46.280  30.403  24.672  1.00  0.00     0.049 H 
ATOM     21  H   UNL     1     -47.325  35.042  25.047  1.00  0.00     0.052 H 
ATOM     22  H   UNL     1     -45.654  34.767  25.606  1.00  0.00     0.052 H 
ATOM     23  H   UNL     1     -45.290  34.816  28.307  1.00  0.00     0.060 H 
ATOM     24  H   UNL     1     -46.794  34.450  29.200  1.00  0.00     0.060 H 
ATOM     25  H   UNL     1     -46.060  31.319  26.740  1.00  0.00     0.164 HD
ENDROOT
BRANCH   1  26
ATOM     26  C   UNL     1     -48.725  29.660  23.701  1.00  0.00     0.134 A 
ATOM     27  C   UNL     1     -49.163  27.367  24.119  1.00  0.00     0.131 A 
ATOM     28  C   UNL     1     -48.717  28.590  24.581  1.00  0.00     0.023 A 
ATOM     29  N   UNL     1     -49.617  27.202  22.873  1.00  0.00    -0.219 NA
ATOM     30  H   UNL     1     -48.411  28.719  25.610  1.00  0.00     0.070 H 
ATOM     31  C   UNL     1     -49.607  28.293  22.098  1.00  0.00     0.120 A 
ATOM     32  N   UNL     1     -49.178  29.513  22.445  1.00  0.00    -0.219 NA
ATOM     33  H   UNL     1     -49.980  28.176  21.086  1.00  0.00     0.106 H 
BRANCH  27  34
ATOM     34  N   UNL     1     -49.208  26.231  24.932  1.00  0.00    -0.373 N 
ATOM     35  H   UNL     1     -49.427  25.469  24.290  1.00  0.00     0.161 HD
BRANCH  34  36
ATOM     36  C   UNL     1     -47.989  25.973  25.678  1.00  0.00     0.005 C 
ATOM     37  H   UNL     1     -48.064  25.048  26.262  1.00  0.00     0.045 H 
ATOM     38  H   UNL     1     -47.819  26.796  26.379  1.00  0.00     0.045 H 
ATOM     39  H   UNL     1     -47.116  25.917  25.022  1.00  0.00     0.045 H 
ENDBRANCH  34  36
ENDBRANCH  27  34
ENDBRANCH   1  26
BRANCH   8  40
ATOM     40  C   UNL     1     -47.239  36.384  27.356  1.00  0.00     0.076 A 
ATOM     41  C   UNL     1     -46.099  37.207  27.335  1.00  0.00     0.001 A 
ATOM     42  C   UNL     1     -48.470  37.024  27.601  1.00  0.00     0.147 A 
ATOM     43  C   UNL     1     -46.192  38.585  27.539  1.00  0.00     0.129 A 
ATOM     44  H   UNL     1     -45.112  36.780  27.184  1.00  0.00     0.068 H 
ATOM     45  C   UNL     1     -48.564  38.404  27.802  1.00  0.00    -0.017 A 
ATOM     46  F   UNL     1     -49.617  36.327  27.619  1.00  0.00    -0.205 F 
ATOM     47  F   UNL     1     -45.068  39.315  27.502  1.00  0.00    -0.207 F 
ATOM     48  C   UNL     1     -47.416  39.205  27.785  1.00  0.00     0.005 A 
ATOM     49  H   UNL     1     -49.542  38.846  27.980  1.00  0.00     0.066 H 
BRANCH  48  50
ATOM     50  C   UNL     1     -47.498  40.701  27.975  1.00  0.00     0.026 C 
ATOM     51  H   UNL     1     -46.881  41.141  27.180  1.00  0.00     0.048 H 
ATOM     52  H   UNL     1     -47.044  41.002  28.928  1.00  0.00     0.048 H 
BRANCH  50  53
ATOM     53  N   UNL     1     -48.871  41.224  27.886  1.00  0.00    -0.299 NA
ATOM     54  C   UNL     1     -48.947  42.318  26.906  1.00  0.00    -0.001 C 
ATOM     55  C   UNL     1     -49.407  41.634  29.184  1.00  0.00    -0.001 C 
ATOM     56  C   UNL     1     -50.124  43.280  27.133  1.00  0.00    -0.035 C 
ATOM     57  H   UNL     1     -49.033  41.874  25.906  1.00  0.00     0.043 H 
ATOM     58  H   UNL     1     -48.028  42.918  26.906  1.00  0.00     0.043 H 
ATOM     59  C   UNL     1     -50.919  41.886  29.080  1.00  0.00    -0.035 C 
ATOM     60  H   UNL     1     -48.895  42.534  29.550  1.00  0.00     0.043 H 
ATOM     61  H   UNL     1     -49.256  40.859  29.946  1.00  0.00     0.043 H 
ATOM     62  C   UNL     1     -51.349  42.597  27.771  1.00  0.00    -0.033 C 
ATOM     63  H   UNL     1     -49.786  44.091  27.793  1.00  0.00     0.029 H 
ATOM     64  H   UNL     1     -50.394  43.754  26.181  1.00  0.00     0.029 H 
ATOM     65  H   UNL     1     -51.213  42.479  29.956  1.00  0.00     0.029 H 
ATOM     66  H   UNL     1     -51.451  40.930  29.177  1.00  0.00     0.029 H 
BRANCH  62  67
ATOM     67  C   UNL     1     -51.964  41.577  26.790  1.00  0.00    -0.060 C 
ATOM     68  H   UNL     1     -51.969  40.570  27.222  1.00  0.00     0.024 H 
ATOM     69  H   UNL     1     -52.995  41.829  26.522  1.00  0.00     0.024 H 
ATOM     70  H   UNL     1     -51.388  41.533  25.857  1.00  0.00     0.024 H 
ENDBRANCH  62  67
BRANCH  62  71
ATOM     71  C   UNL     1     -52.421  43.657  28.082  1.00  0.00    -0.060 C 
ATOM     72  H   UNL     1     -53.382  43.394  27.629  1.00  0.00     0.024 H 
ATOM     73  H   UNL     1     -52.128  44.640  27.696  1.00  0.00     0.024 H 
ATOM     74  H   UNL     1     -52.579  43.754  29.162  1.00  0.00     0.024 H 
ENDBRANCH  62  71
ENDBRANCH  50  53
ENDBRANCH  48  50
ENDBRANCH   8  40
TORSDOF 8
ENDMDL
MODEL 3
REMARK VINA RESULT:      -8.9      2.215     11.418
REMARK SMILES CNc1cc(N2CCC3(CC2)CN(c2cc(F)c(CN4CCC(C)(C)CC4)cc2F)CC(=O)N3)ncn1
REMARK SMILES IDX 6 1 7 2 8 3 9 4 10 5 11 6 12 7 13 8 31 9 32 10 33 11 34 12
REMARK SMILES IDX 5 26 3 27 4 28 37 29 36 31 35 32 2 34 1 36 14 40 15 41 29 42
REMARK SMILES IDX 16 43 28 45 30 46 17 47 18 48 19 50 20 53 21 54 27 55 22 56
REMARK SMILES IDX 26 59 23 62 24 67 25 71
REMARK H PARENT 7 13 7 14 8 15 8 16 10 17 10 18 11 19 11 20 12 21 12 22 31 23
REMARK H PARENT 31 24 34 25 4 30 36 33 2 35 1 37 1 38 1 39 15 44 28 49 19 51
REMARK H PARENT 19 52 21 57 21 58 27 60 27 61 22 63 22 64 26 65 26 66 24 68
REMARK H PARENT 24 69 24 70 25 72 25 73 25 74
REMARK Flexibility Score: inf
ROOT
ATOM      1  N   UNL     1     -48.415  30.841  24.305  1.00  0.00    -0.356 N 
ATOM      2  C   UNL     1     -48.877  31.210  25.651  1.00  0.00     0.021 C 
ATOM      3  C   UNL     1     -48.407  32.625  25.980  1.00  0.00    -0.010 C 
ATOM      4  C   UNL     1     -46.876  32.789  25.827  1.00  0.00     0.061 C 
ATOM      5  C   UNL     1     -46.430  32.263  24.448  1.00  0.00    -0.010 C 
ATOM      6  C   UNL     1     -46.953  30.859  24.156  1.00  0.00     0.021 C 
ATOM      7  C   UNL     1     -46.503  34.301  25.918  1.00  0.00     0.042 C 
ATOM      8  N   UNL     1     -46.816  34.806  27.268  1.00  0.00    -0.357 N 
ATOM      9  C   UNL     1     -46.082  34.095  28.351  1.00  0.00     0.097 C 
ATOM     10  C   UNL     1     -46.002  32.572  28.158  1.00  0.00     0.240 C 
ATOM     11  O   UNL     1     -45.715  31.808  29.079  1.00  0.00    -0.273 OA
ATOM     12  N   UNL     1     -46.174  32.058  26.896  1.00  0.00    -0.347 N 
ATOM     13  H   UNL     1     -49.971  31.202  25.719  1.00  0.00     0.049 H 
ATOM     14  H   UNL     1     -48.500  30.498  26.396  1.00  0.00     0.049 H 
ATOM     15  H   UNL     1     -48.731  32.876  26.996  1.00  0.00     0.031 H 
ATOM     16  H   UNL     1     -48.915  33.325  25.302  1.00  0.00     0.031 H 
ATOM     17  H   UNL     1     -45.335  32.261  24.375  1.00  0.00     0.031 H 
ATOM     18  H   UNL     1     -46.799  32.939  23.664  1.00  0.00     0.031 H 
ATOM     19  H   UNL     1     -46.669  30.602  23.127  1.00  0.00     0.049 H 
ATOM     20  H   UNL     1     -46.477  30.132  24.827  1.00  0.00     0.049 H 
ATOM     21  H   UNL     1     -47.072  34.854  25.158  1.00  0.00     0.052 H 
ATOM     22  H   UNL     1     -45.432  34.426  25.713  1.00  0.00     0.052 H 
ATOM     23  H   UNL     1     -45.052  34.467  28.412  1.00  0.00     0.060 H 
ATOM     24  H   UNL     1     -46.579  34.255  29.315  1.00  0.00     0.060 H 
ATOM     25  H   UNL     1     -46.159  31.044  26.885  1.00  0.00     0.164 HD
ENDROOT
BRANCH   1  26
ATOM     26  C   UNL     1     -48.985  29.617  23.873  1.00  0.00     0.134 A 
ATOM     27  C   UNL     1     -49.552  27.352  24.286  1.00  0.00     0.131 A 
ATOM     28  C   UNL     1     -48.987  28.530  24.733  1.00  0.00     0.023 A 
ATOM     29  N   UNL     1     -50.110  27.245  23.076  1.00  0.00    -0.219 NA
ATOM     30  H   UNL     1     -48.597  28.615  25.737  1.00  0.00     0.070 H 
ATOM     31  C   UNL     1     -50.081  28.350  22.320  1.00  0.00     0.120 A 
ATOM     32  N   UNL     1     -49.541  29.529  22.654  1.00  0.00    -0.219 NA
ATOM     33  H   UNL     1     -50.536  28.281  21.338  1.00  0.00     0.106 H 
BRANCH  27  34
ATOM     34  N   UNL     1     -49.617  26.204  25.081  1.00  0.00    -0.373 N 
ATOM     35  H   UNL     1     -49.814  25.450  24.423  1.00  0.00     0.161 HD
BRANCH  34  36
ATOM     36  C   UNL     1     -48.418  25.939  25.859  1.00  0.00     0.005 C 
ATOM     37  H   UNL     1     -48.550  26.222  26.909  1.00  0.00     0.045 H 
ATOM     38  H   UNL     1     -47.593  26.535  25.455  1.00  0.00     0.045 H 
ATOM     39  H   UNL     1     -48.121  24.888  25.800  1.00  0.00     0.045 H 
ENDBRANCH  34  36
ENDBRANCH  27  34
ENDBRANCH   1  26
BRANCH   8  40
ATOM     40  C   UNL     1     -46.846  36.204  27.453  1.00  0.00     0.076 A 
ATOM     41  C   UNL     1     -46.775  37.035  26.321  1.00  0.00     0.001 A 
ATOM     42  C   UNL     1     -46.920  36.852  28.702  1.00  0.00     0.147 A 
ATOM     43  C   UNL     1     -46.785  38.426  26.436  1.00  0.00     0.129 A 
ATOM     44  H   UNL     1     -46.684  36.607  25.327  1.00  0.00     0.068 H 
ATOM     45  C   UNL     1     -46.933  38.245  28.818  1.00  0.00    -0.017 A 
ATOM     46  F   UNL     1     -47.013  36.146  29.840  1.00  0.00    -0.205 F 
ATOM     47  F   UNL     1     -46.721  39.161  25.317  1.00  0.00    -0.207 F 
ATOM     48  C   UNL     1     -46.854  39.055  27.679  1.00  0.00     0.005 A 
ATOM     49  H   UNL     1     -46.999  38.691  29.808  1.00  0.00     0.066 H 
BRANCH  48  50
ATOM     50  C   UNL     1     -46.892  40.561  27.780  1.00  0.00     0.026 C 
ATOM     51  H   UNL     1     -47.265  40.786  28.788  1.00  0.00     0.048 H 
ATOM     52  H   UNL     1     -47.618  40.984  27.074  1.00  0.00     0.048 H 
BRANCH  50  53
ATOM     53  N   UNL     1     -45.576  41.190  27.586  1.00  0.00    -0.299 NA
ATOM     54  C   UNL     1     -45.501  41.844  26.270  1.00  0.00    -0.001 C 
ATOM     55  C   UNL     1     -44.467  40.255  27.778  1.00  0.00    -0.001 C 
ATOM     56  C   UNL     1     -44.071  42.019  25.740  1.00  0.00    -0.035 C 
ATOM     57  H   UNL     1     -45.979  42.828  26.353  1.00  0.00     0.043 H 
ATOM     58  H   UNL     1     -46.066  41.283  25.514  1.00  0.00     0.043 H 
ATOM     59  C   UNL     1     -43.135  41.016  27.858  1.00  0.00    -0.035 C 
ATOM     60  H   UNL     1     -44.436  39.515  26.966  1.00  0.00     0.043 H 
ATOM     61  H   UNL     1     -44.575  39.686  28.710  1.00  0.00     0.043 H 
ATOM     62  C   UNL     1     -43.027  42.198  26.859  1.00  0.00    -0.033 C 
ATOM     63  H   UNL     1     -43.808  41.131  25.149  1.00  0.00     0.029 H 
ATOM     64  H   UNL     1     -44.044  42.867  25.043  1.00  0.00     0.029 H 
ATOM     65  H   UNL     1     -42.331  40.290  27.683  1.00  0.00     0.029 H 
ATOM     66  H   UNL     1     -42.989  41.380  28.883  1.00  0.00     0.029 H 
BRANCH  62  67
ATOM     67  C   UNL     1     -43.255  43.536  27.594  1.00  0.00    -0.060 C 
ATOM     68  H   UNL     1     -44.246  43.563  28.063  1.00  0.00     0.024 H 
ATOM     69  H   UNL     1     -42.512  43.710  28.378  1.00  0.00     0.024 H 
ATOM     70  H   UNL     1     -43.197  44.381  26.897  1.00  0.00     0.024 H 
ENDBRANCH  62  67
BRANCH  62  71
ATOM     71  C   UNL     1     -41.617  42.232  26.243  1.00  0.00    -0.060 C 
ATOM     72  H   UNL     1     -41.650  42.033  25.167  1.00  0.00     0.024 H 
ATOM     73  H   UNL     1     -40.967  41.479  26.703  1.00  0.00     0.024 H 
ATOM     74  H   UNL     1     -41.147  43.213  26.385  1.00  0.00     0.024 H 
ENDBRANCH  62  71
ENDBRANCH  50  53
ENDBRANCH  48  50
ENDBRANCH   8  40
TORSDOF 8
ENDMDL
MODEL 4
REMARK VINA RESULT:      -8.8      2.328      3.116
REMARK SMILES CNc1cc(N2CCC3(CC2)CN(c2cc(F)c(CN4CCC(C)(C)CC4)cc2F)CC(=O)N3)ncn1
REMARK SMILES IDX 6 1 7 2 8 3 9 4 10 5 11 6 12 7 13 8 31 9 32 10 33 11 34 12
REMARK SMILES IDX 5 26 3 27 4 28 37 29 36 31 35 32 2 34 1 36 14 40 15 41 29 42
REMARK SMILES IDX 16 43 28 45 30 46 17 47 18 48 19 50 20 53 21 54 27 55 22 56
REMARK SMILES IDX 26 59 23 62 24 67 25 71
REMARK H PARENT 7 13 7 14 8 15 8 16 10 17 10 18 11 19 11 20 12 21 12 22 31 23
REMARK H PARENT 31 24 34 25 4 30 36 33 2 35 1 37 1 38 1 39 15 44 28 49 19 51
REMARK H PARENT 19 52 21 57 21 58 27 60 27 61 22 63 22 64 26 65 26 66 24 68
REMARK H PARENT 24 69 24 70 25 72 25 73 25 74
REMARK Flexibility Score: inf
ROOT
ATOM      1  N   UNL     1     -45.979  41.223  26.441  1.00  0.00    -0.356 N 
ATOM      2  C   UNL     1     -45.004  40.158  26.718  1.00  0.00     0.021 C 
ATOM      3  C   UNL     1     -45.671  38.797  26.537  1.00  0.00    -0.010 C 
ATOM      4  C   UNL     1     -46.951  38.648  27.393  1.00  0.00     0.061 C 
ATOM      5  C   UNL     1     -47.877  39.859  27.162  1.00  0.00    -0.010 C 
ATOM      6  C   UNL     1     -47.153  41.193  27.324  1.00  0.00     0.021 C 
ATOM      7  C   UNL     1     -47.716  37.358  26.965  1.00  0.00     0.042 C 
ATOM      8  N   UNL     1     -46.897  36.171  27.279  1.00  0.00    -0.357 N 
ATOM      9  C   UNL     1     -46.571  36.042  28.726  1.00  0.00     0.097 C 
ATOM     10  C   UNL     1     -46.196  37.370  29.403  1.00  0.00     0.240 C 
ATOM     11  O   UNL     1     -45.612  37.412  30.487  1.00  0.00    -0.273 OA
ATOM     12  N   UNL     1     -46.602  38.546  28.821  1.00  0.00    -0.347 N 
ATOM     13  H   UNL     1     -44.151  40.201  26.030  1.00  0.00     0.049 H 
ATOM     14  H   UNL     1     -44.605  40.257  27.736  1.00  0.00     0.049 H 
ATOM     15  H   UNL     1     -44.942  38.013  26.776  1.00  0.00     0.031 H 
ATOM     16  H   UNL     1     -45.930  38.677  25.475  1.00  0.00     0.031 H 
ATOM     17  H   UNL     1     -48.729  39.826  27.853  1.00  0.00     0.031 H 
ATOM     18  H   UNL     1     -48.291  39.811  26.145  1.00  0.00     0.031 H 
ATOM     19  H   UNL     1     -47.857  41.991  27.054  1.00  0.00     0.049 H 
ATOM     20  H   UNL     1     -46.865  41.340  28.373  1.00  0.00     0.049 H 
ATOM     21  H   UNL     1     -47.924  37.409  25.888  1.00  0.00     0.052 H 
ATOM     22  H   UNL     1     -48.671  37.304  27.504  1.00  0.00     0.052 H 
ATOM     23  H   UNL     1     -47.433  35.636  29.269  1.00  0.00     0.060 H 
ATOM     24  H   UNL     1     -45.713  35.376  28.863  1.00  0.00     0.060 H 
ATOM     25  H   UNL     1     -46.257  39.363  29.313  1.00  0.00     0.164 HD
ENDROOT
BRANCH   1  26
ATOM     26  C   UNL     1     -45.364  42.500  26.405  1.00  0.00     0.134 A 
ATOM     27  C   UNL     1     -43.446  43.851  26.059  1.00  0.00     0.131 A 
ATOM     28  C   UNL     1     -44.018  42.594  26.090  1.00  0.00     0.023 A 
ATOM     29  N   UNL     1     -44.155  44.960  26.298  1.00  0.00    -0.219 NA
ATOM     30  H   UNL     1     -43.443  41.715  25.834  1.00  0.00     0.070 H 
ATOM     31  C   UNL     1     -45.451  44.776  26.575  1.00  0.00     0.120 A 
ATOM     32  N   UNL     1     -46.092  43.602  26.647  1.00  0.00    -0.219 NA
ATOM     33  H   UNL     1     -46.041  45.666  26.763  1.00  0.00     0.106 H 
BRANCH  27  34
ATOM     34  N   UNL     1     -42.101  44.054  25.739  1.00  0.00    -0.373 N 
ATOM     35  H   UNL     1     -41.766  44.704  26.450  1.00  0.00     0.161 HD
BRANCH  34  36
ATOM     36  C   UNL     1     -41.300  42.843  25.696  1.00  0.00     0.005 C 
ATOM     37  H   UNL     1     -41.382  42.341  24.726  1.00  0.00     0.045 H 
ATOM     38  H   UNL     1     -41.663  42.149  26.462  1.00  0.00     0.045 H 
ATOM     39  H   UNL     1     -40.247  43.046  25.912  1.00  0.00     0.045 H 
ENDBRANCH  34  36
ENDBRANCH  27  34
ENDBRANCH   1  26
BRANCH   8  40
ATOM     40  C   UNL     1     -47.270  34.945  26.689  1.00  0.00     0.076 A 
ATOM     41  C   UNL     1     -46.273  34.156  26.089  1.00  0.00     0.001 A 
ATOM     42  C   UNL     1     -48.586  34.446  26.629  1.00  0.00     0.147 A 
ATOM     43  C   UNL     1     -46.580  32.939  25.475  1.00  0.00     0.129 A 
ATOM     44  H   UNL     1     -45.241  34.491  26.067  1.00  0.00     0.068 H 
ATOM     45  C   UNL     1     -48.892  33.227  26.018  1.00  0.00    -0.017 A 
ATOM     46  F   UNL     1     -49.604  35.117  27.192  1.00  0.00    -0.205 F 
ATOM     47  F   UNL     1     -45.582  32.231  24.926  1.00  0.00    -0.207 F 
ATOM     48  C   UNL     1     -47.887  32.459  25.419  1.00  0.00     0.005 A 
ATOM     49  H   UNL     1     -49.925  32.887  26.008  1.00  0.00     0.066 H 
BRANCH  48  50
ATOM     50  C   UNL     1     -48.192  31.127  24.776  1.00  0.00     0.026 C 
ATOM     51  H   UNL     1     -48.592  30.490  25.576  1.00  0.00     0.048 H 
ATOM     52  H   UNL     1     -47.274  30.644  24.418  1.00  0.00     0.048 H 
BRANCH  50  53
ATOM     53  N   UNL     1     -49.171  31.222  23.681  1.00  0.00    -0.299 NA
ATOM     54  C   UNL     1     -50.404  30.497  24.022  1.00  0.00    -0.001 C 
ATOM     55  C   UNL     1     -48.629  30.775  22.397  1.00  0.00    -0.001 C 
ATOM     56  C   UNL     1     -51.225  30.051  22.802  1.00  0.00    -0.035 C 
ATOM     57  H   UNL     1     -51.020  31.151  24.652  1.00  0.00     0.043 H 
ATOM     58  H   UNL     1     -50.188  29.600  24.618  1.00  0.00     0.043 H 
ATOM     59  C   UNL     1     -49.577  31.169  21.253  1.00  0.00    -0.035 C 
ATOM     60  H   UNL     1     -48.466  29.689  22.400  1.00  0.00     0.043 H 
ATOM     61  H   UNL     1     -47.655  31.235  22.188  1.00  0.00     0.043 H 
ATOM     62  C   UNL     1     -51.080  30.999  21.596  1.00  0.00    -0.033 C 
ATOM     63  H   UNL     1     -50.891  29.047  22.507  1.00  0.00     0.029 H 
ATOM     64  H   UNL     1     -52.279  29.949  23.092  1.00  0.00     0.029 H 
ATOM     65  H   UNL     1     -49.309  30.559  20.381  1.00  0.00     0.029 H 
ATOM     66  H   UNL     1     -49.377  32.208  20.961  1.00  0.00     0.029 H 
BRANCH  62  67
ATOM     67  C   UNL     1     -51.711  32.370  21.914  1.00  0.00    -0.060 C 
ATOM     68  H   UNL     1     -52.049  32.415  22.956  1.00  0.00     0.024 H 
ATOM     69  H   UNL     1     -51.009  33.196  21.757  1.00  0.00     0.024 H 
ATOM     70  H   UNL     1     -52.583  32.559  21.276  1.00  0.00     0.024 H 
ENDBRANCH  62  67
BRANCH  62  71
ATOM     71  C   UNL     1     -51.825  30.405  20.387  1.00  0.00    -0.060 C 
ATOM     72  H   UNL     1     -51.558  30.927  19.462  1.00  0.00     0.024 H 
ATOM     73  H   UNL     1     -52.910  30.486  20.514  1.00  0.00     0.024 H 
ATOM     74  H   UNL     1     -51.580  29.345  20.253  1.00  0.00     0.024 H 
ENDBRANCH  62  71
ENDBRANCH  50  53
ENDBRANCH  48  50
ENDBRANCH   8  40
TORSDOF 8
ENDMDL
MODEL 5
REMARK VINA RESULT:      -8.7      2.483      3.376
REMARK SMILES CNc1cc(N2CCC3(CC2)CN(c2cc(F)c(CN4CCC(C)(C)CC4)cc2F)CC(=O)N3)ncn1
REMARK SMILES IDX 6 1 7 2 8 3 9 4 10 5 11 6 12 7 13 8 31 9 32 10 33 11 34 12
REMARK SMILES IDX 5 26 3 27 4 28 37 29 36 31 35 32 2 34 1 36 14 40 15 41 29 42
REMARK SMILES IDX 16 43 28 45 30 46 17 47 18 48 19 50 20 53 21 54 27 55 22 56
REMARK SMILES IDX 26 59 23 62 24 67 25 71
REMARK H PARENT 7 13 7 14 8 15 8 16 10 17 10 18 11 19 11 20 12 21 12 22 31 23
REMARK H PARENT 31 24 34 25 4 30 36 33 2 35 1 37 1 38 1 39 15 44 28 49 19 51
REMARK H PARENT 19 52 21 57 21 58 27 60 27 61 22 63 22 64 26 65 26 66 24 68
REMARK H PARENT 24 69 24 70 25 72 25 73 25 74
REMARK Flexibility Score: inf
ROOT
ATOM      1  N   UNL     1     -46.358  41.412  26.569  1.00  0.00    -0.356 N 
ATOM      2  C   UNL     1     -45.312  40.457  26.966  1.00  0.00     0.021 C 
ATOM      3  C   UNL     1     -45.865  39.036  26.890  1.00  0.00    -0.010 C 
ATOM      4  C   UNL     1     -47.156  38.860  27.723  1.00  0.00     0.061 C 
ATOM      5  C   UNL     1     -48.166  39.967  27.360  1.00  0.00    -0.010 C 
ATOM      6  C   UNL     1     -47.554  41.364  27.420  1.00  0.00     0.021 C 
ATOM      7  C   UNL     1     -47.804  37.480  27.393  1.00  0.00     0.042 C 
ATOM      8  N   UNL     1     -46.905  36.395  27.833  1.00  0.00    -0.357 N 
ATOM      9  C   UNL     1     -46.619  36.420  29.294  1.00  0.00     0.097 C 
ATOM     10  C   UNL     1     -46.371  37.828  29.859  1.00  0.00     0.240 C 
ATOM     11  O   UNL     1     -45.828  38.011  30.949  1.00  0.00    -0.273 OA
ATOM     12  N   UNL     1     -46.848  38.911  29.163  1.00  0.00    -0.347 N 
ATOM     13  H   UNL     1     -44.443  40.509  26.299  1.00  0.00     0.049 H 
ATOM     14  H   UNL     1     -44.956  40.676  27.981  1.00  0.00     0.049 H 
ATOM     15  H   UNL     1     -45.085  38.338  27.218  1.00  0.00     0.031 H 
ATOM     16  H   UNL     1     -46.078  38.804  25.838  1.00  0.00     0.031 H 
ATOM     17  H   UNL     1     -49.035  39.926  28.028  1.00  0.00     0.031 H 
ATOM     18  H   UNL     1     -48.541  39.797  26.341  1.00  0.00     0.031 H 
ATOM     19  H   UNL     1     -48.309  42.076  27.061  1.00  0.00     0.049 H 
ATOM     20  H   UNL     1     -47.314  41.626  28.459  1.00  0.00     0.049 H 
ATOM     21  H   UNL     1     -47.980  37.419  26.310  1.00  0.00     0.052 H 
ATOM     22  H   UNL     1     -48.769  37.396  27.909  1.00  0.00     0.052 H 
ATOM     23  H   UNL     1     -47.464  35.994  29.849  1.00  0.00     0.060 H 
ATOM     24  H   UNL     1     -45.716  35.840  29.513  1.00  0.00     0.060 H 
ATOM     25  H   UNL     1     -46.584  39.793  29.588  1.00  0.00     0.164 HD
ENDROOT
BRANCH   1  26
ATOM     26  C   UNL     1     -45.843  42.726  26.435  1.00  0.00     0.134 A 
ATOM     27  C   UNL     1     -44.020  44.193  26.051  1.00  0.00     0.131 A 
ATOM     28  C   UNL     1     -44.493  42.902  26.180  1.00  0.00     0.023 A 
ATOM     29  N   UNL     1     -44.827  45.256  26.138  1.00  0.00    -0.219 NA
ATOM     30  H   UNL     1     -43.837  42.053  26.045  1.00  0.00     0.070 H 
ATOM     31  C   UNL     1     -46.119  44.992  26.366  1.00  0.00     0.120 A 
ATOM     32  N   UNL     1     -46.669  43.781  26.525  1.00  0.00    -0.219 NA
ATOM     33  H   UNL     1     -46.786  45.844  26.432  1.00  0.00     0.106 H 
BRANCH  27  34
ATOM     34  N   UNL     1     -42.679  44.476  25.780  1.00  0.00    -0.373 N 
ATOM     35  H   UNL     1     -42.294  44.765  26.680  1.00  0.00     0.161 HD
BRANCH  34  36
ATOM     36  C   UNL     1     -41.931  43.370  25.207  1.00  0.00     0.005 C 
ATOM     37  H   UNL     1     -42.598  42.622  24.762  1.00  0.00     0.045 H 
ATOM     38  H   UNL     1     -41.360  42.877  26.000  1.00  0.00     0.045 H 
ATOM     39  H   UNL     1     -41.216  43.712  24.453  1.00  0.00     0.045 H 
ENDBRANCH  34  36
ENDBRANCH  27  34
ENDBRANCH   1  26
BRANCH   8  40
ATOM     40  C   UNL     1     -47.162  35.096  27.347  1.00  0.00     0.076 A 
ATOM     41  C   UNL     1     -48.407  34.834  26.748  1.00  0.00     0.001 A 
ATOM     42  C   UNL     1     -46.267  34.011  27.433  1.00  0.00     0.147 A 
ATOM     43  C   UNL     1     -48.728  33.566  26.260  1.00  0.00     0.129 A 
ATOM     44  H   UNL     1     -49.160  35.613  26.675  1.00  0.00     0.068 H 
ATOM     45  C   UNL     1     -46.587  32.742  26.941  1.00  0.00    -0.017 A 
ATOM     46  F   UNL     1     -45.046  34.166  27.968  1.00  0.00    -0.205 F 
ATOM     47  F   UNL     1     -49.930  33.384  25.695  1.00  0.00    -0.207 F 
ATOM     48  C   UNL     1     -47.835  32.500  26.356  1.00  0.00     0.005 A 
ATOM     49  H   UNL     1     -45.854  31.943  27.028  1.00  0.00     0.066 H 
BRANCH  48  50
ATOM     50  C   UNL     1     -48.191  31.143  25.796  1.00  0.00     0.026 C 
ATOM     51  H   UNL     1     -49.286  31.131  25.707  1.00  0.00     0.048 H 
ATOM     52  H   UNL     1     -47.924  30.345  26.501  1.00  0.00     0.048 H 
BRANCH  50  53
ATOM     53  N   UNL     1     -47.583  30.878  24.483  1.00  0.00    -0.299 NA
ATOM     54  C   UNL     1     -46.391  31.717  24.283  1.00  0.00    -0.001 C 
ATOM     55  C   UNL     1     -48.531  31.029  23.379  1.00  0.00    -0.001 C 
ATOM     56  C   UNL     1     -46.029  31.947  22.807  1.00  0.00    -0.035 C 
ATOM     57  H   UNL     1     -45.547  31.234  24.790  1.00  0.00     0.043 H 
ATOM     58  H   UNL     1     -46.515  32.703  24.748  1.00  0.00     0.043 H 
ATOM     59  C   UNL     1     -47.935  30.459  22.082  1.00  0.00    -0.035 C 
ATOM     60  H   UNL     1     -48.804  32.084  23.242  1.00  0.00     0.043 H 
ATOM     61  H   UNL     1     -49.466  30.489  23.574  1.00  0.00     0.043 H 
ATOM     62  C   UNL     1     -46.426  30.769  21.896  1.00  0.00    -0.033 C 
ATOM     63  H   UNL     1     -46.545  32.853  22.461  1.00  0.00     0.029 H 
ATOM     64  H   UNL     1     -44.956  32.157  22.726  1.00  0.00     0.029 H 
ATOM     65  H   UNL     1     -48.518  30.867  21.247  1.00  0.00     0.029 H 
ATOM     66  H   UNL     1     -48.098  29.374  22.057  1.00  0.00     0.029 H 
BRANCH  62  67
ATOM     67  C   UNL     1     -45.582  29.523  22.235  1.00  0.00    -0.060 C 
ATOM     68  H   UNL     1     -44.511  29.747  22.179  1.00  0.00     0.024 H 
ATOM     69  H   UNL     1     -45.790  29.142  23.239  1.00  0.00     0.024 H 
ATOM     70  H   UNL     1     -45.785  28.708  21.529  1.00  0.00     0.024 H 
ENDBRANCH  62  67
BRANCH  62  71
ATOM     71  C   UNL     1     -46.149  31.142  20.429  1.00  0.00    -0.060 C 
ATOM     72  H   UNL     1     -46.434  32.179  20.223  1.00  0.00     0.024 H 
ATOM     73  H   UNL     1     -46.713  30.500  19.744  1.00  0.00     0.024 H 
ATOM     74  H   UNL     1     -45.085  31.037  20.188  1.00  0.00     0.024 H 
ENDBRANCH  62  71
ENDBRANCH  50  53
ENDBRANCH  48  50
ENDBRANCH   8  40
TORSDOF 8
ENDMDL
MODEL 6
REMARK VINA RESULT:      -8.6      2.737     11.848
REMARK SMILES CNc1cc(N2CCC3(CC2)CN(c2cc(F)c(CN4CCC(C)(C)CC4)cc2F)CC(=O)N3)ncn1
REMARK SMILES IDX 6 1 7 2 8 3 9 4 10 5 11 6 12 7 13 8 31 9 32 10 33 11 34 12
REMARK SMILES IDX 5 26 3 27 4 28 37 29 36 31 35 32 2 34 1 36 14 40 15 41 29 42
REMARK SMILES IDX 16 43 28 45 30 46 17 47 18 48 19 50 20 53 21 54 27 55 22 56
REMARK SMILES IDX 26 59 23 62 24 67 25 71
REMARK H PARENT 7 13 7 14 8 15 8 16 10 17 10 18 11 19 11 20 12 21 12 22 31 23
REMARK H PARENT 31 24 34 25 4 30 36 33 2 35 1 37 1 38 1 39 15 44 28 49 19 51
REMARK H PARENT 19 52 21 57 21 58 27 60 27 61 22 63 22 64 26 65 26 66 24 68
REMARK H PARENT 24 69 24 70 25 72 25 73 25 74
REMARK Flexibility Score: inf
ROOT
ATOM      1  N   UNL     1     -46.797  32.693  25.812  1.00  0.00    -0.356 N 
ATOM      2  C   UNL     1     -47.512  33.900  25.374  1.00  0.00     0.021 C 
ATOM      3  C   UNL     1     -46.784  35.139  25.890  1.00  0.00    -0.010 C 
ATOM      4  C   UNL     1     -46.584  35.109  27.424  1.00  0.00     0.061 C 
ATOM      5  C   UNL     1     -45.952  33.766  27.841  1.00  0.00    -0.010 C 
ATOM      6  C   UNL     1     -46.699  32.562  27.272  1.00  0.00     0.021 C 
ATOM      7  C   UNL     1     -45.615  36.256  27.844  1.00  0.00     0.042 C 
ATOM      8  N   UNL     1     -46.242  37.561  27.559  1.00  0.00    -0.357 N 
ATOM      9  C   UNL     1     -47.528  37.770  28.280  1.00  0.00     0.097 C 
ATOM     10  C   UNL     1     -48.437  36.531  28.311  1.00  0.00     0.240 C 
ATOM     11  O   UNL     1     -49.636  36.603  28.582  1.00  0.00    -0.273 OA
ATOM     12  N   UNL     1     -47.873  35.295  28.112  1.00  0.00    -0.347 N 
ATOM     13  H   UNL     1     -47.551  33.973  24.280  1.00  0.00     0.049 H 
ATOM     14  H   UNL     1     -48.548  33.886  25.735  1.00  0.00     0.049 H 
ATOM     15  H   UNL     1     -47.344  36.030  25.582  1.00  0.00     0.031 H 
ATOM     16  H   UNL     1     -45.803  35.194  25.398  1.00  0.00     0.031 H 
ATOM     17  H   UNL     1     -45.917  33.682  28.935  1.00  0.00     0.031 H 
ATOM     18  H   UNL     1     -44.913  33.727  27.487  1.00  0.00     0.031 H 
ATOM     19  H   UNL     1     -46.133  31.660  27.539  1.00  0.00     0.049 H 
ATOM     20  H   UNL     1     -47.693  32.483  27.731  1.00  0.00     0.049 H 
ATOM     21  H   UNL     1     -44.674  36.151  27.287  1.00  0.00     0.052 H 
ATOM     22  H   UNL     1     -45.396  36.176  28.917  1.00  0.00     0.052 H 
ATOM     23  H   UNL     1     -47.332  38.052  29.321  1.00  0.00     0.060 H 
ATOM     24  H   UNL     1     -48.109  38.563  27.796  1.00  0.00     0.060 H 
ATOM     25  H   UNL     1     -48.563  34.551  28.095  1.00  0.00     0.164 HD
ENDROOT
BRANCH   1  26
ATOM     26  C   UNL     1     -47.318  31.524  25.200  1.00  0.00     0.134 A 
ATOM     27  C   UNL     1     -47.375  30.007  23.378  1.00  0.00     0.131 A 
ATOM     28  C   UNL     1     -46.853  31.151  23.949  1.00  0.00     0.023 A 
ATOM     29  N   UNL     1     -48.284  29.252  24.006  1.00  0.00    -0.219 NA
ATOM     30  H   UNL     1     -46.074  31.715  23.454  1.00  0.00     0.070 H 
ATOM     31  C   UNL     1     -48.660  29.677  25.217  1.00  0.00     0.120 A 
ATOM     32  N   UNL     1     -48.229  30.779  25.845  1.00  0.00    -0.219 NA
ATOM     33  H   UNL     1     -49.391  29.071  25.741  1.00  0.00     0.106 H 
BRANCH  27  34
ATOM     34  N   UNL     1     -46.963  29.539  22.128  1.00  0.00    -0.373 N 
ATOM     35  H   UNL     1     -47.825  29.237  21.673  1.00  0.00     0.161 HD
BRANCH  34  36
ATOM     36  C   UNL     1     -46.244  30.512  21.324  1.00  0.00     0.005 C 
ATOM     37  H   UNL     1     -46.379  31.529  21.709  1.00  0.00     0.045 H 
ATOM     38  H   UNL     1     -46.636  30.489  20.302  1.00  0.00     0.045 H 
ATOM     39  H   UNL     1     -45.176  30.284  21.270  1.00  0.00     0.045 H 
ENDBRANCH  34  36
ENDBRANCH  27  34
ENDBRANCH   1  26
BRANCH   8  40
ATOM     40  C   UNL     1     -45.413  38.702  27.574  1.00  0.00     0.076 A 
ATOM     41  C   UNL     1     -45.453  39.579  26.475  1.00  0.00     0.001 A 
ATOM     42  C   UNL     1     -44.513  39.033  28.606  1.00  0.00     0.147 A 
ATOM     43  C   UNL     1     -44.647  40.718  26.422  1.00  0.00     0.129 A 
ATOM     44  H   UNL     1     -46.099  39.373  25.627  1.00  0.00     0.068 H 
ATOM     45  C   UNL     1     -43.708  40.174  28.555  1.00  0.00    -0.017 A 
ATOM     46  F   UNL     1     -44.417  38.269  29.707  1.00  0.00    -0.205 F 
ATOM     47  F   UNL     1     -44.738  41.516  25.349  1.00  0.00    -0.207 F 
ATOM     48  C   UNL     1     -43.758  41.031  27.449  1.00  0.00     0.005 A 
ATOM     49  H   UNL     1     -43.037  40.383  29.385  1.00  0.00     0.066 H 
BRANCH  48  50
ATOM     50  C   UNL     1     -42.915  42.282  27.385  1.00  0.00     0.026 C 
ATOM     51  H   UNL     1     -42.139  42.085  26.632  1.00  0.00     0.048 H 
ATOM     52  H   UNL     1     -42.394  42.454  28.336  1.00  0.00     0.048 H 
BRANCH  50  53
ATOM     53  N   UNL     1     -43.681  43.480  27.007  1.00  0.00    -0.299 NA
ATOM     54  C   UNL     1     -43.165  44.054  25.755  1.00  0.00    -0.001 C 
ATOM     55  C   UNL     1     -43.728  44.482  28.072  1.00  0.00    -0.001 C 
ATOM     56  C   UNL     1     -43.478  45.547  25.576  1.00  0.00    -0.035 C 
ATOM     57  H   UNL     1     -43.599  43.492  24.919  1.00  0.00     0.043 H 
ATOM     58  H   UNL     1     -42.076  43.936  25.682  1.00  0.00     0.043 H 
ATOM     59  C   UNL     1     -44.771  45.561  27.744  1.00  0.00    -0.035 C 
ATOM     60  H   UNL     1     -42.740  44.939  28.221  1.00  0.00     0.043 H 
ATOM     61  H   UNL     1     -44.011  44.036  29.034  1.00  0.00     0.043 H 
ATOM     62  C   UNL     1     -44.798  45.974  26.248  1.00  0.00    -0.033 C 
ATOM     63  H   UNL     1     -42.654  46.129  26.011  1.00  0.00     0.029 H 
ATOM     64  H   UNL     1     -43.490  45.789  24.506  1.00  0.00     0.029 H 
ATOM     65  H   UNL     1     -44.555  46.430  28.379  1.00  0.00     0.029 H 
ATOM     66  H   UNL     1     -45.764  45.208  28.050  1.00  0.00     0.029 H 
BRANCH  62  67
ATOM     67  C   UNL     1     -45.997  45.315  25.537  1.00  0.00    -0.060 C 
ATOM     68  H   UNL     1     -45.709  44.359  25.084  1.00  0.00     0.024 H 
ATOM     69  H   UNL     1     -46.829  45.119  26.221  1.00  0.00     0.024 H 
ATOM     70  H   UNL     1     -46.380  45.958  24.735  1.00  0.00     0.024 H 
ENDBRANCH  62  67
BRANCH  62  71
ATOM     71  C   UNL     1     -44.960  47.500  26.133  1.00  0.00    -0.060 C 
ATOM     72  H   UNL     1     -45.518  47.904  26.984  1.00  0.00     0.024 H 
ATOM     73  H   UNL     1     -45.502  47.771  25.220  1.00  0.00     0.024 H 
ATOM     74  H   UNL     1     -43.986  48.000  26.106  1.00  0.00     0.024 H 
ENDBRANCH  62  71
ENDBRANCH  50  53
ENDBRANCH  48  50
ENDBRANCH   8  40
TORSDOF 8
ENDMDL
MODEL 7
REMARK VINA RESULT:      -8.5      2.635     11.937
REMARK SMILES CNc1cc(N2CCC3(CC2)CN(c2cc(F)c(CN4CCC(C)(C)CC4)cc2F)CC(=O)N3)ncn1
REMARK SMILES IDX 6 1 7 2 8 3 9 4 10 5 11 6 12 7 13 8 31 9 32 10 33 11 34 12
REMARK SMILES IDX 5 26 3 27 4 28 37 29 36 31 35 32 2 34 1 36 14 40 15 41 29 42
REMARK SMILES IDX 16 43 28 45 30 46 17 47 18 48 19 50 20 53 21 54 27 55 22 56
REMARK SMILES IDX 26 59 23 62 24 67 25 71
REMARK H PARENT 7 13 7 14 8 15 8 16 10 17 10 18 11 19 11 20 12 21 12 22 31 23
REMARK H PARENT 31 24 34 25 4 30 36 33 2 35 1 37 1 38 1 39 15 44 28 49 19 51
REMARK H PARENT 19 52 21 57 21 58 27 60 27 61 22 63 22 64 26 65 26 66 24 68
REMARK H PARENT 24 69 24 70 25 72 25 73 25 74
REMARK Flexibility Score: inf
ROOT
ATOM      1  N   UNL     1     -46.579  32.696  25.665  1.00  0.00    -0.356 N 
ATOM      2  C   UNL     1     -47.356  33.861  25.216  1.00  0.00     0.021 C 
ATOM      3  C   UNL     1     -46.728  35.137  25.769  1.00  0.00    -0.010 C 
ATOM      4  C   UNL     1     -46.576  35.102  27.308  1.00  0.00     0.061 C 
ATOM      5  C   UNL     1     -45.872  33.797  27.733  1.00  0.00    -0.010 C 
ATOM      6  C   UNL     1     -46.521  32.554  27.127  1.00  0.00     0.021 C 
ATOM      7  C   UNL     1     -45.699  36.304  27.772  1.00  0.00     0.042 C 
ATOM      8  N   UNL     1     -46.400  37.569  27.479  1.00  0.00    -0.357 N 
ATOM      9  C   UNL     1     -47.719  37.686  28.159  1.00  0.00     0.097 C 
ATOM     10  C   UNL     1     -48.546  36.390  28.147  1.00  0.00     0.240 C 
ATOM     11  O   UNL     1     -49.755  36.381  28.379  1.00  0.00    -0.273 OA
ATOM     12  N   UNL     1     -47.897  35.195  27.954  1.00  0.00    -0.347 N 
ATOM     13  H   UNL     1     -47.364  33.944  24.122  1.00  0.00     0.049 H 
ATOM     14  H   UNL     1     -48.401  33.775  25.542  1.00  0.00     0.049 H 
ATOM     15  H   UNL     1     -47.334  35.994  25.451  1.00  0.00     0.031 H 
ATOM     16  H   UNL     1     -45.737  35.261  25.310  1.00  0.00     0.031 H 
ATOM     17  H   UNL     1     -45.868  33.702  28.826  1.00  0.00     0.031 H 
ATOM     18  H   UNL     1     -44.822  33.829  27.413  1.00  0.00     0.031 H 
ATOM     19  H   UNL     1     -45.907  31.687  27.404  1.00  0.00     0.049 H 
ATOM     20  H   UNL     1     -47.522  32.406  27.552  1.00  0.00     0.049 H 
ATOM     21  H   UNL     1     -44.736  36.266  27.245  1.00  0.00     0.052 H 
ATOM     22  H   UNL     1     -45.510  36.224  28.851  1.00  0.00     0.052 H 
ATOM     23  H   UNL     1     -47.576  37.967  29.209  1.00  0.00     0.060 H 
ATOM     24  H   UNL     1     -48.335  38.445  27.664  1.00  0.00     0.060 H 
ATOM     25  H   UNL     1     -48.536  34.409  27.907  1.00  0.00     0.164 HD
ENDROOT
BRANCH   1  26
ATOM     26  C   UNL     1     -47.002  31.505  25.024  1.00  0.00     0.134 A 
ATOM     27  C   UNL     1     -48.434  29.617  24.928  1.00  0.00     0.131 A 
ATOM     28  C   UNL     1     -48.041  30.772  25.576  1.00  0.00     0.023 A 
ATOM     29  N   UNL     1     -47.863  29.212  23.789  1.00  0.00    -0.219 NA
ATOM     30  H   UNL     1     -48.556  31.117  26.461  1.00  0.00     0.070 H 
ATOM     31  C   UNL     1     -46.881  29.990  23.319  1.00  0.00     0.120 A 
ATOM     32  N   UNL     1     -46.416  31.114  23.881  1.00  0.00    -0.219 NA
ATOM     33  H   UNL     1     -46.413  29.678  22.392  1.00  0.00     0.106 H 
BRANCH  27  34
ATOM     34  N   UNL     1     -49.480  28.816  25.395  1.00  0.00    -0.373 N 
ATOM     35  H   UNL     1     -50.028  28.603  24.561  1.00  0.00     0.161 HD
BRANCH  34  36
ATOM     36  C   UNL     1     -49.057  27.609  26.084  1.00  0.00     0.005 C 
ATOM     37  H   UNL     1     -47.982  27.627  26.301  1.00  0.00     0.045 H 
ATOM     38  H   UNL     1     -49.251  26.745  25.440  1.00  0.00     0.045 H 
ATOM     39  H   UNL     1     -49.613  27.456  27.013  1.00  0.00     0.045 H 
ENDBRANCH  34  36
ENDBRANCH  27  34
ENDBRANCH   1  26
BRANCH   8  40
ATOM     40  C   UNL     1     -45.647  38.761  27.533  1.00  0.00     0.076 A 
ATOM     41  C   UNL     1     -44.593  38.851  28.459  1.00  0.00     0.001 A 
ATOM     42  C   UNL     1     -45.883  39.901  26.739  1.00  0.00     0.147 A 
ATOM     43  C   UNL     1     -43.820  40.008  28.572  1.00  0.00     0.129 A 
ATOM     44  H   UNL     1     -44.372  38.024  29.127  1.00  0.00     0.068 H 
ATOM     45  C   UNL     1     -45.108  41.058  26.850  1.00  0.00    -0.017 A 
ATOM     46  F   UNL     1     -46.854  39.906  25.812  1.00  0.00    -0.205 F 
ATOM     47  F   UNL     1     -42.825  40.027  29.471  1.00  0.00    -0.207 F 
ATOM     48  C   UNL     1     -44.067  41.131  27.783  1.00  0.00     0.005 A 
ATOM     49  H   UNL     1     -45.330  41.906  26.206  1.00  0.00     0.066 H 
BRANCH  48  50
ATOM     50  C   UNL     1     -43.202  42.362  27.903  1.00  0.00     0.026 C 
ATOM     51  H   UNL     1     -42.264  42.124  27.382  1.00  0.00     0.048 H 
ATOM     52  H   UNL     1     -42.939  42.558  28.950  1.00  0.00     0.048 H 
BRANCH  50  53
ATOM     53  N   UNL     1     -43.811  43.561  27.304  1.00  0.00    -0.299 NA
ATOM     54  C   UNL     1     -43.203  43.855  25.997  1.00  0.00    -0.001 C 
ATOM     55  C   UNL     1     -43.759  44.724  28.189  1.00  0.00    -0.001 C 
ATOM     56  C   UNL     1     -43.331  45.324  25.565  1.00  0.00    -0.035 C 
ATOM     57  H   UNL     1     -43.684  43.215  25.247  1.00  0.00     0.043 H 
ATOM     58  H   UNL     1     -42.135  43.602  25.988  1.00  0.00     0.043 H 
ATOM     59  C   UNL     1     -44.658  45.847  27.647  1.00  0.00    -0.035 C 
ATOM     60  H   UNL     1     -42.726  45.083  28.300  1.00  0.00     0.043 H 
ATOM     61  H   UNL     1     -44.113  44.480  29.198  1.00  0.00     0.043 H 
ATOM     62  C   UNL     1     -44.604  46.005  26.105  1.00  0.00    -0.033 C 
ATOM     63  H   UNL     1     -42.452  45.872  25.932  1.00  0.00     0.029 H 
ATOM     64  H   UNL     1     -43.292  45.384  24.470  1.00  0.00     0.029 H 
ATOM     65  H   UNL     1     -44.352  46.778  28.141  1.00  0.00     0.029 H 
ATOM     66  H   UNL     1     -45.692  45.666  27.967  1.00  0.00     0.029 H 
BRANCH  62  67
ATOM     67  C   UNL     1     -45.859  45.379  25.463  1.00  0.00    -0.060 C 
ATOM     68  H   UNL     1     -45.586  44.580  24.763  1.00  0.00     0.024 H 
ATOM     69  H   UNL     1     -46.536  44.949  26.208  1.00  0.00     0.024 H 
ATOM     70  H   UNL     1     -46.428  46.129  24.901  1.00  0.00     0.024 H 
ENDBRANCH  62  67
BRANCH  62  71
ATOM     71  C   UNL     1     -44.580  47.499  25.736  1.00  0.00    -0.060 C 
ATOM     72  H   UNL     1     -45.555  47.830  25.362  1.00  0.00     0.024 H 
ATOM     73  H   UNL     1     -43.838  47.701  24.956  1.00  0.00     0.024 H 
ATOM     74  H   UNL     1     -44.330  48.117  26.606  1.00  0.00     0.024 H 
ENDBRANCH  62  71
ENDBRANCH  50  53
ENDBRANCH  48  50
ENDBRANCH   8  40
TORSDOF 8
ENDMDL
