MODEL 1
REMARK VINA RESULT:     -11.2      0.000      0.000
REMARK SMILES c1cc(-c2noc(Cc3ccc4cc(CNCC5CCC5)[nH]c4c3)n2)c2cn[nH]c2c1
REMARK SMILES IDX 9 1 10 2 11 3 12 4 13 5 14 6 22 7 23 8 24 9 8 15 7 18 4 19
REMARK SMILES IDX 5 20 25 21 6 22 3 23 1 24 2 25 31 26 30 29 26 31 29 32 27 33
REMARK SMILES IDX 28 34 15 37 16 40 17 42 18 45 19 46 21 47 20 49
REMARK H PARENT 10 10 11 11 13 12 22 13 24 14 8 16 8 17 1 27 2 28 31 30 29 35
REMARK H PARENT 27 36 15 38 15 39 16 41 17 43 17 44 18 48 19 50 19 51 21 52
REMARK H PARENT 21 53 20 54 20 55
REMARK Flexibility Score: inf
ROOT
ATOM      1  C   UNL     1     -48.029  34.575  26.513  1.00  0.00    -0.037 A 
ATOM      2  C   UNL     1     -46.747  34.595  25.947  1.00  0.00    -0.058 A 
ATOM      3  C   UNL     1     -46.295  33.542  25.142  1.00  0.00    -0.053 A 
ATOM      4  C   UNL     1     -47.146  32.450  24.891  1.00  0.00    -0.000 A 
ATOM      5  C   UNL     1     -47.019  31.250  24.142  1.00  0.00    -0.032 A 
ATOM      6  C   UNL     1     -48.206  30.549  24.247  1.00  0.00     0.030 A 
ATOM      7  N   UNL     1     -49.039  31.289  25.054  1.00  0.00    -0.357 N 
ATOM      8  C   UNL     1     -48.420  32.450  25.455  1.00  0.00     0.046 A 
ATOM      9  C   UNL     1     -48.890  33.491  26.265  1.00  0.00    -0.034 A 
ATOM     10  H   UNL     1     -46.079  35.437  26.124  1.00  0.00     0.063 H 
ATOM     11  H   UNL     1     -45.299  33.573  24.711  1.00  0.00     0.063 H 
ATOM     12  H   UNL     1     -46.153  30.934  23.576  1.00  0.00     0.065 H 
ATOM     13  H   UNL     1     -49.979  31.024  25.312  1.00  0.00     0.166 HD
ATOM     14  H   UNL     1     -49.893  33.464  26.681  1.00  0.00     0.065 H 
ENDROOT
BRANCH   1  15
ATOM     15  C   UNL     1     -48.503  35.729  27.369  1.00  0.00     0.052 C 
ATOM     16  H   UNL     1     -49.015  36.460  26.730  1.00  0.00     0.042 H 
ATOM     17  H   UNL     1     -49.260  35.380  28.083  1.00  0.00     0.042 H 
BRANCH  15  18
ATOM     18  C   UNL     1     -47.398  36.397  28.100  1.00  0.00     0.231 A 
ATOM     19  C   UNL     1     -45.826  37.584  28.842  1.00  0.00     0.203 A 
ATOM     20  N   UNL     1     -46.036  36.678  29.811  1.00  0.00    -0.057 NA
ATOM     21  N   UNL     1     -46.674  37.439  27.760  1.00  0.00    -0.191 NA
ATOM     22  O   UNL     1     -47.073  35.892  29.322  1.00  0.00    -0.339 OA
BRANCH  19  23
ATOM     23  C   UNL     1     -44.822  38.638  28.888  1.00  0.00     0.034 A 
ATOM     24  C   UNL     1     -42.929  39.706  30.016  1.00  0.00    -0.059 A 
ATOM     25  C   UNL     1     -43.899  38.705  29.953  1.00  0.00    -0.050 A 
ATOM     26  C   UNL     1     -42.839  40.681  29.021  1.00  0.00    -0.036 A 
ATOM     27  H   UNL     1     -42.234  39.727  30.853  1.00  0.00     0.062 H 
ATOM     28  H   UNL     1     -43.938  37.962  30.749  1.00  0.00     0.063 H 
ATOM     29  C   UNL     1     -43.756  40.608  27.969  1.00  0.00     0.066 A 
ATOM     30  H   UNL     1     -42.084  41.460  29.069  1.00  0.00     0.065 H 
ATOM     31  C   UNL     1     -44.739  39.621  27.874  1.00  0.00     0.031 A 
ATOM     32  N   UNL     1     -43.922  41.401  26.864  1.00  0.00    -0.278 N 
ATOM     33  C   UNL     1     -45.420  39.941  26.672  1.00  0.00     0.057 A 
ATOM     34  N   UNL     1     -44.924  41.019  26.058  1.00  0.00    -0.183 NA
ATOM     35  H   UNL     1     -43.382  42.218  26.603  1.00  0.00     0.190 HD
ATOM     36  H   UNL     1     -46.259  39.430  26.218  1.00  0.00     0.087 H 
ENDBRANCH  19  23
ENDBRANCH  15  18
ENDBRANCH   1  15
BRANCH   6  37
ATOM     37  C   UNL     1     -48.624  29.242  23.671  1.00  0.00     0.036 C 
ATOM     38  H   UNL     1     -47.800  28.839  23.069  1.00  0.00     0.049 H 
ATOM     39  H   UNL     1     -49.466  29.370  22.980  1.00  0.00     0.049 H 
BRANCH  37  40
ATOM     40  N   UNL     1     -48.938  28.269  24.714  1.00  0.00    -0.311 NA
ATOM     41  H   UNL     1     -49.797  27.780  24.473  1.00  0.00     0.123 HD
BRANCH  40  42
ATOM     42  C   UNL     1     -47.866  27.288  24.905  1.00  0.00    -0.002 C 
ATOM     43  H   UNL     1     -48.017  26.423  24.250  1.00  0.00     0.043 H 
ATOM     44  H   UNL     1     -46.898  27.734  24.652  1.00  0.00     0.043 H 
BRANCH  42  45
ATOM     45  C   UNL     1     -47.863  26.809  26.359  1.00  0.00    -0.029 C 
ATOM     46  C   UNL     1     -48.685  25.521  26.631  1.00  0.00    -0.049 C 
ATOM     47  C   UNL     1     -46.617  26.015  26.840  1.00  0.00    -0.049 C 
ATOM     48  H   UNL     1     -48.140  27.627  27.036  1.00  0.00     0.032 H 
ATOM     49  C   UNL     1     -47.378  24.719  26.502  1.00  0.00    -0.053 C 
ATOM     50  H   UNL     1     -49.464  25.276  25.904  1.00  0.00     0.027 H 
ATOM     51  H   UNL     1     -49.121  25.486  27.636  1.00  0.00     0.027 H 
ATOM     52  H   UNL     1     -46.413  26.134  27.911  1.00  0.00     0.027 H 
ATOM     53  H   UNL     1     -45.688  26.174  26.286  1.00  0.00     0.027 H 
ATOM     54  H   UNL     1     -47.185  24.345  25.490  1.00  0.00     0.027 H 
ATOM     55  H   UNL     1     -47.253  23.897  27.212  1.00  0.00     0.027 H 
ENDBRANCH  42  45
ENDBRANCH  40  42
ENDBRANCH  37  40
ENDBRANCH   6  37
TORSDOF 7
ENDMDL
MODEL 2
REMARK VINA RESULT:     -11.1      1.616      2.219
REMARK SMILES c1cc(-c2noc(Cc3ccc4cc(CNCC5CCC5)[nH]c4c3)n2)c2cn[nH]c2c1
REMARK SMILES IDX 9 1 10 2 11 3 12 4 13 5 14 6 22 7 23 8 24 9 8 15 7 18 4 19
REMARK SMILES IDX 5 20 25 21 6 22 3 23 1 24 2 25 31 26 30 29 26 31 29 32 27 33
REMARK SMILES IDX 28 34 15 37 16 40 17 42 18 45 19 46 21 47 20 49
REMARK H PARENT 10 10 11 11 13 12 22 13 24 14 8 16 8 17 1 27 2 28 31 30 29 35
REMARK H PARENT 27 36 15 38 15 39 16 41 17 43 17 44 18 48 19 50 19 51 21 52
REMARK H PARENT 21 53 20 54 20 55
REMARK Flexibility Score: inf
ROOT
ATOM      1  C   UNL     1     -47.597  36.135  27.244  1.00  0.00    -0.037 A 
ATOM      2  C   UNL     1     -46.261  35.772  27.036  1.00  0.00    -0.058 A 
ATOM      3  C   UNL     1     -45.922  34.501  26.555  1.00  0.00    -0.053 A 
ATOM      4  C   UNL     1     -46.945  33.577  26.268  1.00  0.00    -0.000 A 
ATOM      5  C   UNL     1     -46.963  32.243  25.779  1.00  0.00    -0.032 A 
ATOM      6  C   UNL     1     -48.281  31.839  25.682  1.00  0.00     0.030 A 
ATOM      7  N   UNL     1     -49.057  32.888  26.115  1.00  0.00    -0.357 N 
ATOM      8  C   UNL     1     -48.269  33.957  26.473  1.00  0.00     0.046 A 
ATOM      9  C   UNL     1     -48.628  35.222  26.957  1.00  0.00    -0.034 A 
ATOM     10  H   UNL     1     -45.458  36.478  27.244  1.00  0.00     0.063 H 
ATOM     11  H   UNL     1     -44.882  34.234  26.399  1.00  0.00     0.063 H 
ATOM     12  H   UNL     1     -46.102  31.643  25.516  1.00  0.00     0.065 H 
ATOM     13  H   UNL     1     -50.066  32.882  26.158  1.00  0.00     0.166 HD
ATOM     14  H   UNL     1     -49.671  35.490  27.096  1.00  0.00     0.065 H 
ENDROOT
BRANCH   1  15
ATOM     15  C   UNL     1     -47.942  37.519  27.752  1.00  0.00     0.052 C 
ATOM     16  H   UNL     1     -48.870  37.853  27.272  1.00  0.00     0.042 H 
ATOM     17  H   UNL     1     -48.162  37.479  28.826  1.00  0.00     0.042 H 
BRANCH  15  18
ATOM     18  C   UNL     1     -46.867  38.510  27.499  1.00  0.00     0.231 A 
ATOM     19  C   UNL     1     -45.207  39.805  27.478  1.00  0.00     0.203 A 
ATOM     20  N   UNL     1     -45.801  40.016  26.292  1.00  0.00    -0.057 NA
ATOM     21  N   UNL     1     -45.848  38.856  28.253  1.00  0.00    -0.191 NA
ATOM     22  O   UNL     1     -46.899  39.163  26.305  1.00  0.00    -0.339 OA
BRANCH  19  23
ATOM     23  C   UNL     1     -44.002  40.479  27.941  1.00  0.00     0.034 A 
ATOM     24  C   UNL     1     -42.213  40.707  29.597  1.00  0.00    -0.059 A 
ATOM     25  C   UNL     1     -43.369  40.076  29.135  1.00  0.00    -0.050 A 
ATOM     26  C   UNL     1     -41.641  41.765  28.888  1.00  0.00    -0.036 A 
ATOM     27  H   UNL     1     -41.751  40.370  30.523  1.00  0.00     0.062 H 
ATOM     28  H   UNL     1     -43.785  39.255  29.717  1.00  0.00     0.063 H 
ATOM     29  C   UNL     1     -42.275  42.158  27.705  1.00  0.00     0.066 A 
ATOM     30  H   UNL     1     -40.742  42.257  29.245  1.00  0.00     0.065 H 
ATOM     31  C   UNL     1     -43.431  41.550  27.215  1.00  0.00     0.031 A 
ATOM     32  N   UNL     1     -41.965  43.143  26.804  1.00  0.00    -0.278 N 
ATOM     33  C   UNL     1     -43.706  42.265  26.021  1.00  0.00     0.057 A 
ATOM     34  N   UNL     1     -42.816  43.231  25.771  1.00  0.00    -0.183 NA
ATOM     35  H   UNL     1     -41.185  43.789  26.838  1.00  0.00     0.190 HD
ATOM     36  H   UNL     1     -44.519  42.121  25.322  1.00  0.00     0.087 H 
ENDBRANCH  19  23
ENDBRANCH  15  18
ENDBRANCH   1  15
BRANCH   6  37
ATOM     37  C   UNL     1     -48.878  30.551  25.232  1.00  0.00     0.036 C 
ATOM     38  H   UNL     1     -48.536  30.338  24.212  1.00  0.00     0.049 H 
ATOM     39  H   UNL     1     -49.970  30.626  25.173  1.00  0.00     0.049 H 
BRANCH  37  40
ATOM     40  N   UNL     1     -48.468  29.440  26.086  1.00  0.00    -0.311 NA
ATOM     41  H   UNL     1     -48.901  29.539  27.002  1.00  0.00     0.123 HD
BRANCH  40  42
ATOM     42  C   UNL     1     -48.835  28.137  25.524  1.00  0.00    -0.002 C 
ATOM     43  H   UNL     1     -49.867  28.155  25.155  1.00  0.00     0.043 H 
ATOM     44  H   UNL     1     -48.182  27.894  24.678  1.00  0.00     0.043 H 
BRANCH  42  45
ATOM     45  C   UNL     1     -48.720  27.061  26.607  1.00  0.00    -0.029 C 
ATOM     46  C   UNL     1     -49.053  25.619  26.142  1.00  0.00    -0.049 C 
ATOM     47  C   UNL     1     -47.294  26.537  26.935  1.00  0.00    -0.049 C 
ATOM     48  H   UNL     1     -49.289  27.349  27.500  1.00  0.00     0.032 H 
ATOM     49  C   UNL     1     -47.544  25.389  25.938  1.00  0.00    -0.053 C 
ATOM     50  H   UNL     1     -49.670  25.525  25.245  1.00  0.00     0.027 H 
ATOM     51  H   UNL     1     -49.486  24.994  26.932  1.00  0.00     0.027 H 
ATOM     52  H   UNL     1     -47.184  26.198  27.972  1.00  0.00     0.027 H 
ATOM     53  H   UNL     1     -46.458  27.198  26.692  1.00  0.00     0.027 H 
ATOM     54  H   UNL     1     -47.196  25.603  24.922  1.00  0.00     0.027 H 
ATOM     55  H   UNL     1     -47.168  24.408  26.241  1.00  0.00     0.027 H 
ENDBRANCH  42  45
ENDBRANCH  40  42
ENDBRANCH  37  40
ENDBRANCH   6  37
TORSDOF 7
ENDMDL
MODEL 3
REMARK VINA RESULT:     -10.5      1.321      2.069
REMARK SMILES c1cc(-c2noc(Cc3ccc4cc(CNCC5CCC5)[nH]c4c3)n2)c2cn[nH]c2c1
REMARK SMILES IDX 9 1 10 2 11 3 12 4 13 5 14 6 22 7 23 8 24 9 8 15 7 18 4 19
REMARK SMILES IDX 5 20 25 21 6 22 3 23 1 24 2 25 31 26 30 29 26 31 29 32 27 33
REMARK SMILES IDX 28 34 15 37 16 40 17 42 18 45 19 46 21 47 20 49
REMARK H PARENT 10 10 11 11 13 12 22 13 24 14 8 16 8 17 1 27 2 28 31 30 29 35
REMARK H PARENT 27 36 15 38 15 39 16 41 17 43 17 44 18 48 19 50 19 51 21 52
REMARK H PARENT 21 53 20 54 20 55
REMARK Flexibility Score: inf
ROOT
ATOM      1  C   UNL     1     -48.114  33.563  26.057  1.00  0.00    -0.037 A 
ATOM      2  C   UNL     1     -46.806  33.774  25.601  1.00  0.00    -0.058 A 
ATOM      3  C   UNL     1     -46.175  32.849  24.759  1.00  0.00    -0.053 A 
ATOM      4  C   UNL     1     -46.870  31.693  24.360  1.00  0.00    -0.000 A 
ATOM      5  C   UNL     1     -46.548  30.580  23.536  1.00  0.00    -0.032 A 
ATOM      6  C   UNL     1     -47.648  29.745  23.493  1.00  0.00     0.030 A 
ATOM      7  N   UNL     1     -48.619  30.316  24.281  1.00  0.00    -0.357 N 
ATOM      8  C   UNL     1     -48.172  31.502  24.816  1.00  0.00     0.046 A 
ATOM      9  C   UNL     1     -48.820  32.413  25.660  1.00  0.00    -0.034 A 
ATOM     10  H   UNL     1     -46.257  34.668  25.893  1.00  0.00     0.063 H 
ATOM     11  H   UNL     1     -45.161  33.027  24.414  1.00  0.00     0.063 H 
ATOM     12  H   UNL     1     -45.611  30.412  23.022  1.00  0.00     0.065 H 
ATOM     13  H   UNL     1     -49.537  29.926  24.442  1.00  0.00     0.166 HD
ATOM     14  H   UNL     1     -49.840  32.240  25.990  1.00  0.00     0.065 H 
ENDROOT
BRANCH   1  15
ATOM     15  C   UNL     1     -48.782  34.582  26.954  1.00  0.00     0.052 C 
ATOM     16  H   UNL     1     -49.579  35.084  26.391  1.00  0.00     0.042 H 
ATOM     17  H   UNL     1     -49.284  34.074  27.788  1.00  0.00     0.042 H 
BRANCH  15  18
ATOM     18  C   UNL     1     -47.835  35.594  27.483  1.00  0.00     0.231 A 
ATOM     19  C   UNL     1     -46.544  37.204  27.901  1.00  0.00     0.203 A 
ATOM     20  N   UNL     1     -46.534  36.476  29.030  1.00  0.00    -0.057 NA
ATOM     21  N   UNL     1     -47.361  36.680  26.916  1.00  0.00    -0.191 NA
ATOM     22  O   UNL     1     -47.385  35.411  28.755  1.00  0.00    -0.339 OA
BRANCH  19  23
ATOM     23  C   UNL     1     -45.793  38.433  27.693  1.00  0.00     0.034 A 
ATOM     24  C   UNL     1     -45.321  40.417  26.337  1.00  0.00    -0.059 A 
ATOM     25  C   UNL     1     -46.029  39.234  26.556  1.00  0.00    -0.050 A 
ATOM     26  C   UNL     1     -44.349  40.849  27.241  1.00  0.00    -0.036 A 
ATOM     27  H   UNL     1     -45.529  41.010  25.448  1.00  0.00     0.062 H 
ATOM     28  H   UNL     1     -46.779  38.930  25.827  1.00  0.00     0.063 H 
ATOM     29  C   UNL     1     -44.122  40.050  28.366  1.00  0.00     0.066 A 
ATOM     30  H   UNL     1     -43.798  41.769  27.072  1.00  0.00     0.065 H 
ATOM     31  C   UNL     1     -44.811  38.863  28.616  1.00  0.00     0.031 A 
ATOM     32  N   UNL     1     -43.252  40.200  29.414  1.00  0.00    -0.278 N 
ATOM     33  C   UNL     1     -44.258  38.406  29.839  1.00  0.00     0.057 A 
ATOM     34  N   UNL     1     -43.313  39.217  30.325  1.00  0.00    -0.183 NA
ATOM     35  H   UNL     1     -42.592  40.953  29.566  1.00  0.00     0.190 HD
ATOM     36  H   UNL     1     -44.505  37.513  30.398  1.00  0.00     0.087 H 
ENDBRANCH  19  23
ENDBRANCH  15  18
ENDBRANCH   1  15
BRANCH   6  37
ATOM     37  C   UNL     1     -47.865  28.450  22.789  1.00  0.00     0.036 C 
ATOM     38  H   UNL     1     -47.023  28.270  22.110  1.00  0.00     0.049 H 
ATOM     39  H   UNL     1     -48.758  28.495  22.155  1.00  0.00     0.049 H 
BRANCH  37  40
ATOM     40  N   UNL     1     -47.936  27.333  23.727  1.00  0.00    -0.311 NA
ATOM     41  H   UNL     1     -48.204  26.488  23.226  1.00  0.00     0.123 HD
BRANCH  40  42
ATOM     42  C   UNL     1     -46.664  27.099  24.415  1.00  0.00    -0.002 C 
ATOM     43  H   UNL     1     -45.864  26.910  23.689  1.00  0.00     0.043 H 
ATOM     44  H   UNL     1     -46.383  27.982  25.000  1.00  0.00     0.043 H 
BRANCH  42  45
ATOM     45  C   UNL     1     -46.794  25.877  25.330  1.00  0.00    -0.029 C 
ATOM     46  C   UNL     1     -46.389  26.115  26.808  1.00  0.00    -0.049 C 
ATOM     47  C   UNL     1     -48.214  25.539  25.860  1.00  0.00    -0.049 C 
ATOM     48  H   UNL     1     -46.279  25.012  24.894  1.00  0.00     0.032 H 
ATOM     49  C   UNL     1     -47.877  26.348  27.127  1.00  0.00    -0.053 C 
ATOM     50  H   UNL     1     -45.726  26.963  27.004  1.00  0.00     0.027 H 
ATOM     51  H   UNL     1     -45.972  25.226  27.295  1.00  0.00     0.027 H 
ATOM     52  H   UNL     1     -48.363  24.470  26.053  1.00  0.00     0.027 H 
ATOM     53  H   UNL     1     -49.060  25.910  25.275  1.00  0.00     0.027 H 
ATOM     54  H   UNL     1     -48.183  27.399  27.074  1.00  0.00     0.027 H 
ATOM     55  H   UNL     1     -48.233  25.924  28.069  1.00  0.00     0.027 H 
ENDBRANCH  42  45
ENDBRANCH  40  42
ENDBRANCH  37  40
ENDBRANCH   6  37
TORSDOF 7
ENDMDL
MODEL 4
REMARK VINA RESULT:     -10.4      2.494      3.383
REMARK SMILES c1cc(-c2noc(Cc3ccc4cc(CNCC5CCC5)[nH]c4c3)n2)c2cn[nH]c2c1
REMARK SMILES IDX 9 1 10 2 11 3 12 4 13 5 14 6 22 7 23 8 24 9 8 15 7 18 4 19
REMARK SMILES IDX 5 20 25 21 6 22 3 23 1 24 2 25 31 26 30 29 26 31 29 32 27 33
REMARK SMILES IDX 28 34 15 37 16 40 17 42 18 45 19 46 21 47 20 49
REMARK H PARENT 10 10 11 11 13 12 22 13 24 14 8 16 8 17 1 27 2 28 31 30 29 35
REMARK H PARENT 27 36 15 38 15 39 16 41 17 43 17 44 18 48 19 50 19 51 21 52
REMARK H PARENT 21 53 20 54 20 55
REMARK Flexibility Score: inf
ROOT
ATOM      1  C   UNL     1     -47.641  36.005  27.151  1.00  0.00    -0.037 A 
ATOM      2  C   UNL     1     -46.345  35.662  26.743  1.00  0.00    -0.058 A 
ATOM      3  C   UNL     1     -46.079  34.424  26.144  1.00  0.00    -0.053 A 
ATOM      4  C   UNL     1     -47.133  33.514  25.941  1.00  0.00    -0.000 A 
ATOM      5  C   UNL     1     -47.221  32.213  25.377  1.00  0.00    -0.032 A 
ATOM      6  C   UNL     1     -48.541  31.808  25.434  1.00  0.00     0.030 A 
ATOM      7  N   UNL     1     -49.249  32.826  26.031  1.00  0.00    -0.357 N 
ATOM      8  C   UNL     1     -48.417  33.874  26.345  1.00  0.00     0.046 A 
ATOM      9  C   UNL     1     -48.703  35.105  26.949  1.00  0.00    -0.034 A 
ATOM     10  H   UNL     1     -45.520  36.358  26.884  1.00  0.00     0.063 H 
ATOM     11  H   UNL     1     -45.069  34.173  25.833  1.00  0.00     0.063 H 
ATOM     12  H   UNL     1     -46.405  31.635  24.965  1.00  0.00     0.065 H 
ATOM     13  H   UNL     1     -50.243  32.811  26.209  1.00  0.00     0.166 HD
ATOM     14  H   UNL     1     -49.717  35.359  27.244  1.00  0.00     0.065 H 
ENDROOT
BRANCH   1  15
ATOM     15  C   UNL     1     -47.909  37.353  27.785  1.00  0.00     0.052 C 
ATOM     16  H   UNL     1     -48.850  37.753  27.386  1.00  0.00     0.042 H 
ATOM     17  H   UNL     1     -48.073  37.233  28.863  1.00  0.00     0.042 H 
BRANCH  15  18
ATOM     18  C   UNL     1     -46.816  38.328  27.550  1.00  0.00     0.231 A 
ATOM     19  C   UNL     1     -45.147  39.611  27.564  1.00  0.00     0.203 A 
ATOM     20  N   UNL     1     -45.686  39.789  26.347  1.00  0.00    -0.057 NA
ATOM     21  N   UNL     1     -45.829  38.691  28.338  1.00  0.00    -0.191 NA
ATOM     22  O   UNL     1     -46.789  38.944  26.336  1.00  0.00    -0.339 OA
BRANCH  19  23
ATOM     23  C   UNL     1     -43.958  40.291  28.059  1.00  0.00     0.034 A 
ATOM     24  C   UNL     1     -42.234  40.548  29.779  1.00  0.00    -0.059 A 
ATOM     25  C   UNL     1     -43.373  39.911  29.286  1.00  0.00    -0.050 A 
ATOM     26  C   UNL     1     -41.631  41.589  29.071  1.00  0.00    -0.036 A 
ATOM     27  H   UNL     1     -41.810  40.229  30.729  1.00  0.00     0.062 H 
ATOM     28  H   UNL     1     -43.814  39.103  29.867  1.00  0.00     0.063 H 
ATOM     29  C   UNL     1     -42.217  41.960  27.857  1.00  0.00     0.066 A 
ATOM     30  H   UNL     1     -40.745  42.085  29.453  1.00  0.00     0.065 H 
ATOM     31  C   UNL     1     -43.355  41.344  27.334  1.00  0.00     0.031 A 
ATOM     32  N   UNL     1     -41.869  42.925  26.948  1.00  0.00    -0.278 N 
ATOM     33  C   UNL     1     -43.580  42.036  26.116  1.00  0.00     0.057 A 
ATOM     34  N   UNL     1     -42.679  42.994  25.881  1.00  0.00    -0.183 NA
ATOM     35  H   UNL     1     -41.088  43.569  27.000  1.00  0.00     0.190 HD
ATOM     36  H   UNL     1     -44.367  41.880  25.389  1.00  0.00     0.087 H 
ENDBRANCH  19  23
ENDBRANCH  15  18
ENDBRANCH   1  15
BRANCH   6  37
ATOM     37  C   UNL     1     -49.198  30.547  24.991  1.00  0.00     0.036 C 
ATOM     38  H   UNL     1     -50.173  30.791  24.551  1.00  0.00     0.049 H 
ATOM     39  H   UNL     1     -49.408  29.895  25.845  1.00  0.00     0.049 H 
BRANCH  37  40
ATOM     40  N   UNL     1     -48.407  29.856  23.977  1.00  0.00    -0.311 NA
ATOM     41  H   UNL     1     -48.713  28.887  23.911  1.00  0.00     0.123 HD
BRANCH  40  42
ATOM     42  C   UNL     1     -48.517  30.483  22.657  1.00  0.00    -0.002 C 
ATOM     43  H   UNL     1     -49.456  30.193  22.172  1.00  0.00     0.043 H 
ATOM     44  H   UNL     1     -48.514  31.574  22.757  1.00  0.00     0.043 H 
BRANCH  42  45
ATOM     45  C   UNL     1     -47.349  30.030  21.776  1.00  0.00    -0.029 C 
ATOM     46  C   UNL     1     -46.874  31.068  20.726  1.00  0.00    -0.049 C 
ATOM     47  C   UNL     1     -45.924  30.121  22.388  1.00  0.00    -0.049 C 
ATOM     48  H   UNL     1     -47.562  29.053  21.324  1.00  0.00     0.032 H 
ATOM     49  C   UNL     1     -45.783  31.503  21.721  1.00  0.00    -0.053 C 
ATOM     50  H   UNL     1     -47.593  31.843  20.445  1.00  0.00     0.027 H 
ATOM     51  H   UNL     1     -46.475  30.613  19.812  1.00  0.00     0.027 H 
ATOM     52  H   UNL     1     -45.231  29.371  21.989  1.00  0.00     0.027 H 
ATOM     53  H   UNL     1     -45.855  30.116  23.479  1.00  0.00     0.027 H 
ATOM     54  H   UNL     1     -46.078  32.337  22.367  1.00  0.00     0.027 H 
ATOM     55  H   UNL     1     -44.804  31.722  21.287  1.00  0.00     0.027 H 
ENDBRANCH  42  45
ENDBRANCH  40  42
ENDBRANCH  37  40
ENDBRANCH   6  37
TORSDOF 7
ENDMDL
MODEL 5
REMARK VINA RESULT:     -10.2      1.962      3.549
REMARK SMILES c1cc(-c2noc(Cc3ccc4cc(CNCC5CCC5)[nH]c4c3)n2)c2cn[nH]c2c1
REMARK SMILES IDX 9 1 10 2 11 3 12 4 13 5 14 6 22 7 23 8 24 9 8 15 7 18 4 19
REMARK SMILES IDX 5 20 25 21 6 22 3 23 1 24 2 25 31 26 30 29 26 31 29 32 27 33
REMARK SMILES IDX 28 34 15 37 16 40 17 42 18 45 19 46 21 47 20 49
REMARK H PARENT 10 10 11 11 13 12 22 13 24 14 8 16 8 17 1 27 2 28 31 30 29 35
REMARK H PARENT 27 36 15 38 15 39 16 41 17 43 17 44 18 48 19 50 19 51 21 52
REMARK H PARENT 21 53 20 54 20 55
REMARK Flexibility Score: inf
ROOT
ATOM      1  C   UNL     1     -46.300  36.369  29.026  1.00  0.00    -0.037 A 
ATOM      2  C   UNL     1     -47.645  36.582  28.696  1.00  0.00    -0.058 A 
ATOM      3  C   UNL     1     -48.251  35.883  27.644  1.00  0.00    -0.053 A 
ATOM      4  C   UNL     1     -47.497  34.946  26.913  1.00  0.00    -0.000 A 
ATOM      5  C   UNL     1     -47.783  34.084  25.820  1.00  0.00    -0.032 A 
ATOM      6  C   UNL     1     -46.639  33.367  25.527  1.00  0.00     0.030 A 
ATOM      7  N   UNL     1     -45.666  33.785  26.405  1.00  0.00    -0.357 N 
ATOM      8  C   UNL     1     -46.163  34.741  27.259  1.00  0.00     0.046 A 
ATOM      9  C   UNL     1     -45.538  35.432  28.305  1.00  0.00    -0.034 A 
ATOM     10  H   UNL     1     -48.244  37.296  29.258  1.00  0.00     0.063 H 
ATOM     11  H   UNL     1     -49.294  36.058  27.400  1.00  0.00     0.063 H 
ATOM     12  H   UNL     1     -48.730  33.992  25.305  1.00  0.00     0.065 H 
ATOM     13  H   UNL     1     -44.718  33.435  26.428  1.00  0.00     0.166 HD
ATOM     14  H   UNL     1     -44.499  35.241  28.556  1.00  0.00     0.065 H 
ENDROOT
BRANCH   1  15
ATOM     15  C   UNL     1     -45.668  37.124  30.175  1.00  0.00     0.052 C 
ATOM     16  H   UNL     1     -46.461  37.499  30.834  1.00  0.00     0.042 H 
ATOM     17  H   UNL     1     -45.072  36.439  30.791  1.00  0.00     0.042 H 
BRANCH  15  18
ATOM     18  C   UNL     1     -44.821  38.256  29.725  1.00  0.00     0.231 A 
ATOM     19  C   UNL     1     -43.847  39.868  28.783  1.00  0.00     0.203 A 
ATOM     20  N   UNL     1     -43.189  39.723  29.945  1.00  0.00    -0.057 NA
ATOM     21  N   UNL     1     -44.884  38.968  28.622  1.00  0.00    -0.191 NA
ATOM     22  O   UNL     1     -43.829  38.657  30.567  1.00  0.00    -0.339 OA
BRANCH  19  23
ATOM     23  C   UNL     1     -43.541  40.866  27.769  1.00  0.00     0.034 A 
ATOM     24  C   UNL     1     -41.909  42.305  26.645  1.00  0.00    -0.059 A 
ATOM     25  C   UNL     1     -42.225  41.349  27.611  1.00  0.00    -0.050 A 
ATOM     26  C   UNL     1     -42.891  42.819  25.796  1.00  0.00    -0.036 A 
ATOM     27  H   UNL     1     -40.883  42.654  26.552  1.00  0.00     0.062 H 
ATOM     28  H   UNL     1     -41.431  40.972  28.254  1.00  0.00     0.063 H 
ATOM     29  C   UNL     1     -44.193  42.335  25.959  1.00  0.00     0.066 A 
ATOM     30  H   UNL     1     -42.647  43.562  25.044  1.00  0.00     0.065 H 
ATOM     31  C   UNL     1     -44.544  41.380  26.914  1.00  0.00     0.031 A 
ATOM     32  N   UNL     1     -45.353  42.637  25.295  1.00  0.00    -0.278 N 
ATOM     33  C   UNL     1     -45.937  41.204  26.715  1.00  0.00     0.057 A 
ATOM     34  N   UNL     1     -46.428  41.964  25.732  1.00  0.00    -0.183 NA
ATOM     35  H   UNL     1     -45.476  43.294  24.533  1.00  0.00     0.190 HD
ATOM     36  H   UNL     1     -46.615  40.549  27.247  1.00  0.00     0.087 H 
ENDBRANCH  19  23
ENDBRANCH  15  18
ENDBRANCH   1  15
BRANCH   6  37
ATOM     37  C   UNL     1     -46.371  32.334  24.489  1.00  0.00     0.036 C 
ATOM     38  H   UNL     1     -45.309  32.060  24.527  1.00  0.00     0.049 H 
ATOM     39  H   UNL     1     -46.541  32.736  23.484  1.00  0.00     0.049 H 
BRANCH  37  40
ATOM     40  N   UNL     1     -47.156  31.124  24.717  1.00  0.00    -0.311 NA
ATOM     41  H   UNL     1     -48.141  31.371  24.798  1.00  0.00     0.123 HD
BRANCH  40  42
ATOM     42  C   UNL     1     -46.997  30.142  23.641  1.00  0.00    -0.002 C 
ATOM     43  H   UNL     1     -46.820  30.647  22.684  1.00  0.00     0.043 H 
ATOM     44  H   UNL     1     -46.134  29.498  23.844  1.00  0.00     0.043 H 
BRANCH  42  45
ATOM     45  C   UNL     1     -48.270  29.299  23.523  1.00  0.00    -0.029 C 
ATOM     46  C   UNL     1     -48.083  27.782  23.785  1.00  0.00    -0.049 C 
ATOM     47  C   UNL     1     -49.237  29.305  24.740  1.00  0.00    -0.049 C 
ATOM     48  H   UNL     1     -48.776  29.495  22.570  1.00  0.00     0.032 H 
ATOM     49  C   UNL     1     -48.535  28.026  25.236  1.00  0.00    -0.053 C 
ATOM     50  H   UNL     1     -47.070  27.387  23.666  1.00  0.00     0.027 H 
ATOM     51  H   UNL     1     -48.773  27.151  23.212  1.00  0.00     0.027 H 
ATOM     52  H   UNL     1     -50.286  29.147  24.462  1.00  0.00     0.027 H 
ATOM     53  H   UNL     1     -49.178  30.165  25.412  1.00  0.00     0.027 H 
ATOM     54  H   UNL     1     -47.711  28.216  25.932  1.00  0.00     0.027 H 
ATOM     55  H   UNL     1     -49.190  27.262  25.665  1.00  0.00     0.027 H 
ENDBRANCH  42  45
ENDBRANCH  40  42
ENDBRANCH  37  40
ENDBRANCH   6  37
TORSDOF 7
ENDMDL
MODEL 6
REMARK VINA RESULT:     -10.1      2.862      3.993
REMARK SMILES c1cc(-c2noc(Cc3ccc4cc(CNCC5CCC5)[nH]c4c3)n2)c2cn[nH]c2c1
REMARK SMILES IDX 9 1 10 2 11 3 12 4 13 5 14 6 22 7 23 8 24 9 8 15 7 18 4 19
REMARK SMILES IDX 5 20 25 21 6 22 3 23 1 24 2 25 31 26 30 29 26 31 29 32 27 33
REMARK SMILES IDX 28 34 15 37 16 40 17 42 18 45 19 46 21 47 20 49
REMARK H PARENT 10 10 11 11 13 12 22 13 24 14 8 16 8 17 1 27 2 28 31 30 29 35
REMARK H PARENT 27 36 15 38 15 39 16 41 17 43 17 44 18 48 19 50 19 51 21 52
REMARK H PARENT 21 53 20 54 20 55
REMARK Flexibility Score: inf
ROOT
ATOM      1  C   UNL     1     -46.797  35.295  28.586  1.00  0.00    -0.037 A 
ATOM      2  C   UNL     1     -47.997  35.690  27.981  1.00  0.00    -0.058 A 
ATOM      3  C   UNL     1     -48.453  35.076  26.807  1.00  0.00    -0.053 A 
ATOM      4  C   UNL     1     -47.694  34.039  26.232  1.00  0.00    -0.000 A 
ATOM      5  C   UNL     1     -47.854  33.218  25.083  1.00  0.00    -0.032 A 
ATOM      6  C   UNL     1     -46.782  32.347  25.025  1.00  0.00     0.030 A 
ATOM      7  N   UNL     1     -45.974  32.632  26.101  1.00  0.00    -0.357 N 
ATOM      8  C   UNL     1     -46.508  33.653  26.851  1.00  0.00     0.046 A 
ATOM      9  C   UNL     1     -46.034  34.257  28.022  1.00  0.00    -0.034 A 
ATOM     10  H   UNL     1     -48.600  36.484  28.418  1.00  0.00     0.063 H 
ATOM     11  H   UNL     1     -49.385  35.393  26.350  1.00  0.00     0.063 H 
ATOM     12  H   UNL     1     -48.671  33.255  24.376  1.00  0.00     0.065 H 
ATOM     13  H   UNL     1     -45.110  32.154  26.317  1.00  0.00     0.166 HD
ATOM     14  H   UNL     1     -45.109  33.926  28.486  1.00  0.00     0.065 H 
ENDROOT
BRANCH   1  15
ATOM     15  C   UNL     1     -46.330  35.963  29.861  1.00  0.00     0.052 C 
ATOM     16  H   UNL     1     -47.205  36.207  30.476  1.00  0.00     0.042 H 
ATOM     17  H   UNL     1     -45.737  35.258  30.457  1.00  0.00     0.042 H 
BRANCH  15  18
ATOM     18  C   UNL     1     -45.540  37.194  29.612  1.00  0.00     0.231 A 
ATOM     19  C   UNL     1     -44.590  38.940  28.919  1.00  0.00     0.203 A 
ATOM     20  N   UNL     1     -44.139  38.800  30.176  1.00  0.00    -0.057 NA
ATOM     21  N   UNL     1     -45.480  37.952  28.540  1.00  0.00    -0.191 NA
ATOM     22  O   UNL     1     -44.765  37.647  30.635  1.00  0.00    -0.339 OA
BRANCH  19  23
ATOM     23  C   UNL     1     -44.214  40.015  28.011  1.00  0.00     0.034 A 
ATOM     24  C   UNL     1     -44.571  41.234  25.918  1.00  0.00    -0.059 A 
ATOM     25  C   UNL     1     -44.914  40.210  26.802  1.00  0.00    -0.050 A 
ATOM     26  C   UNL     1     -43.516  42.103  26.201  1.00  0.00    -0.036 A 
ATOM     27  H   UNL     1     -45.133  41.355  24.994  1.00  0.00     0.062 H 
ATOM     28  H   UNL     1     -45.743  39.552  26.545  1.00  0.00     0.063 H 
ATOM     29  C   UNL     1     -42.827  41.903  27.401  1.00  0.00     0.066 A 
ATOM     30  H   UNL     1     -43.249  42.900  25.514  1.00  0.00     0.065 H 
ATOM     31  C   UNL     1     -43.144  40.890  28.308  1.00  0.00     0.031 A 
ATOM     32  N   UNL     1     -41.767  42.574  27.952  1.00  0.00    -0.278 N 
ATOM     33  C   UNL     1     -42.199  41.068  29.351  1.00  0.00     0.057 A 
ATOM     34  N   UNL     1     -41.365  42.090  29.136  1.00  0.00    -0.183 NA
ATOM     35  H   UNL     1     -41.275  43.372  27.569  1.00  0.00     0.190 HD
ATOM     36  H   UNL     1     -42.085  40.493  30.260  1.00  0.00     0.087 H 
ENDBRANCH  19  23
ENDBRANCH  15  18
ENDBRANCH   1  15
BRANCH   6  37
ATOM     37  C   UNL     1     -46.441  31.280  24.044  1.00  0.00     0.036 C 
ATOM     38  H   UNL     1     -46.620  30.302  24.508  1.00  0.00     0.049 H 
ATOM     39  H   UNL     1     -45.374  31.304  23.796  1.00  0.00     0.049 H 
BRANCH  37  40
ATOM     40  N   UNL     1     -47.267  31.368  22.843  1.00  0.00    -0.311 NA
ATOM     41  H   UNL     1     -46.844  32.023  22.189  1.00  0.00     0.123 HD
BRANCH  40  42
ATOM     42  C   UNL     1     -47.432  30.071  22.181  1.00  0.00    -0.002 C 
ATOM     43  H   UNL     1     -46.822  30.024  21.272  1.00  0.00     0.043 H 
ATOM     44  H   UNL     1     -47.103  29.265  22.847  1.00  0.00     0.043 H 
BRANCH  42  45
ATOM     45  C   UNL     1     -48.902  29.875  21.798  1.00  0.00    -0.029 C 
ATOM     46  C   UNL     1     -49.717  31.182  21.619  1.00  0.00    -0.049 C 
ATOM     47  C   UNL     1     -49.210  29.576  20.305  1.00  0.00    -0.049 C 
ATOM     48  H   UNL     1     -49.389  29.174  22.487  1.00  0.00     0.032 H 
ATOM     49  C   UNL     1     -49.446  31.086  20.106  1.00  0.00    -0.053 C 
ATOM     50  H   UNL     1     -49.324  32.075  22.113  1.00  0.00     0.027 H 
ATOM     51  H   UNL     1     -50.776  31.075  21.880  1.00  0.00     0.027 H 
ATOM     52  H   UNL     1     -50.112  28.971  20.160  1.00  0.00     0.027 H 
ATOM     53  H   UNL     1     -48.399  29.145  19.711  1.00  0.00     0.027 H 
ATOM     54  H   UNL     1     -48.555  31.633  19.780  1.00  0.00     0.027 H 
ATOM     55  H   UNL     1     -50.283  31.353  19.456  1.00  0.00     0.027 H 
ENDBRANCH  42  45
ENDBRANCH  40  42
ENDBRANCH  37  40
ENDBRANCH   6  37
TORSDOF 7
ENDMDL
MODEL 7
REMARK VINA RESULT:      -9.9      1.512      2.168
REMARK SMILES c1cc(-c2noc(Cc3ccc4cc(CNCC5CCC5)[nH]c4c3)n2)c2cn[nH]c2c1
REMARK SMILES IDX 9 1 10 2 11 3 12 4 13 5 14 6 22 7 23 8 24 9 8 15 7 18 4 19
REMARK SMILES IDX 5 20 25 21 6 22 3 23 1 24 2 25 31 26 30 29 26 31 29 32 27 33
REMARK SMILES IDX 28 34 15 37 16 40 17 42 18 45 19 46 21 47 20 49
REMARK H PARENT 10 10 11 11 13 12 22 13 24 14 8 16 8 17 1 27 2 28 31 30 29 35
REMARK H PARENT 27 36 15 38 15 39 16 41 17 43 17 44 18 48 19 50 19 51 21 52
REMARK H PARENT 21 53 20 54 20 55
REMARK Flexibility Score: inf
ROOT
ATOM      1  C   UNL     1     -46.425  34.284  27.485  1.00  0.00    -0.037 A 
ATOM      2  C   UNL     1     -46.254  34.922  26.249  1.00  0.00    -0.058 A 
ATOM      3  C   UNL     1     -46.540  34.261  25.048  1.00  0.00    -0.053 A 
ATOM      4  C   UNL     1     -47.014  32.936  25.084  1.00  0.00    -0.000 A 
ATOM      5  C   UNL     1     -47.395  31.995  24.090  1.00  0.00    -0.032 A 
ATOM      6  C   UNL     1     -47.800  30.838  24.727  1.00  0.00     0.030 A 
ATOM      7  N   UNL     1     -47.659  31.051  26.079  1.00  0.00    -0.357 N 
ATOM      8  C   UNL     1     -47.186  32.320  26.321  1.00  0.00     0.046 A 
ATOM      9  C   UNL     1     -46.903  32.962  27.534  1.00  0.00    -0.034 A 
ATOM     10  H   UNL     1     -45.897  35.949  26.203  1.00  0.00     0.063 H 
ATOM     11  H   UNL     1     -46.402  34.769  24.098  1.00  0.00     0.063 H 
ATOM     12  H   UNL     1     -47.383  32.150  23.020  1.00  0.00     0.065 H 
ATOM     13  H   UNL     1     -47.877  30.375  26.797  1.00  0.00     0.166 HD
ATOM     14  H   UNL     1     -47.058  32.456  28.482  1.00  0.00     0.065 H 
ENDROOT
BRANCH   1  15
ATOM     15  C   UNL     1     -46.124  35.021  28.772  1.00  0.00     0.052 C 
ATOM     16  H   UNL     1     -46.920  34.811  29.497  1.00  0.00     0.042 H 
ATOM     17  H   UNL     1     -45.203  34.627  29.221  1.00  0.00     0.042 H 
BRANCH  15  18
ATOM     18  C   UNL     1     -46.000  36.487  28.582  1.00  0.00     0.231 A 
ATOM     19  C   UNL     1     -45.473  38.487  28.190  1.00  0.00     0.203 A 
ATOM     20  N   UNL     1     -46.752  38.560  28.593  1.00  0.00    -0.057 NA
ATOM     21  N   UNL     1     -44.977  37.197  28.162  1.00  0.00    -0.191 NA
ATOM     22  O   UNL     1     -47.101  37.239  28.853  1.00  0.00    -0.339 OA
BRANCH  19  23
ATOM     23  C   UNL     1     -44.653  39.627  27.802  1.00  0.00     0.034 A 
ATOM     24  C   UNL     1     -44.098  41.375  26.180  1.00  0.00    -0.059 A 
ATOM     25  C   UNL     1     -44.871  40.281  26.571  1.00  0.00    -0.050 A 
ATOM     26  C   UNL     1     -43.077  41.861  26.998  1.00  0.00    -0.036 A 
ATOM     27  H   UNL     1     -44.293  41.855  25.223  1.00  0.00     0.062 H 
ATOM     28  H   UNL     1     -45.658  39.931  25.904  1.00  0.00     0.063 H 
ATOM     29  C   UNL     1     -42.869  41.208  28.216  1.00  0.00     0.066 A 
ATOM     30  H   UNL     1     -42.476  42.713  26.695  1.00  0.00     0.065 H 
ATOM     31  C   UNL     1     -43.622  40.112  28.639  1.00  0.00     0.031 A 
ATOM     32  N   UNL     1     -41.963  41.442  29.218  1.00  0.00    -0.278 N 
ATOM     33  C   UNL     1     -43.065  39.789  29.903  1.00  0.00     0.057 A 
ATOM     34  N   UNL     1     -42.059  40.596  30.255  1.00  0.00    -0.183 NA
ATOM     35  H   UNL     1     -41.253  42.164  29.253  1.00  0.00     0.190 HD
ATOM     36  H   UNL     1     -43.351  38.997  30.582  1.00  0.00     0.087 H 
ENDBRANCH  19  23
ENDBRANCH  15  18
ENDBRANCH   1  15
BRANCH   6  37
ATOM     37  C   UNL     1     -48.295  29.543  24.183  1.00  0.00     0.036 C 
ATOM     38  H   UNL     1     -48.627  29.698  23.148  1.00  0.00     0.049 H 
ATOM     39  H   UNL     1     -49.179  29.200  24.733  1.00  0.00     0.049 H 
BRANCH  37  40
ATOM     40  N   UNL     1     -47.248  28.527  24.173  1.00  0.00    -0.311 NA
ATOM     41  H   UNL     1     -46.530  28.774  24.851  1.00  0.00     0.123 HD
BRANCH  40  42
ATOM     42  C   UNL     1     -47.761  27.191  24.489  1.00  0.00    -0.002 C 
ATOM     43  H   UNL     1     -48.833  27.235  24.713  1.00  0.00     0.043 H 
ATOM     44  H   UNL     1     -47.626  26.523  23.631  1.00  0.00     0.043 H 
BRANCH  42  45
ATOM     45  C   UNL     1     -47.027  26.636  25.713  1.00  0.00    -0.029 C 
ATOM     46  C   UNL     1     -47.850  26.625  27.028  1.00  0.00    -0.049 C 
ATOM     47  C   UNL     1     -46.946  25.090  25.849  1.00  0.00    -0.049 C 
ATOM     48  H   UNL     1     -46.055  27.130  25.837  1.00  0.00     0.032 H 
ATOM     49  C   UNL     1     -48.203  25.155  26.737  1.00  0.00    -0.053 C 
ATOM     50  H   UNL     1     -48.698  27.313  27.079  1.00  0.00     0.027 H 
ATOM     51  H   UNL     1     -47.237  26.757  27.927  1.00  0.00     0.027 H 
ATOM     52  H   UNL     1     -46.052  24.747  26.383  1.00  0.00     0.027 H 
ATOM     53  H   UNL     1     -47.050  24.508  24.929  1.00  0.00     0.027 H 
ATOM     54  H   UNL     1     -49.141  25.025  26.185  1.00  0.00     0.027 H 
ATOM     55  H   UNL     1     -48.208  24.487  27.602  1.00  0.00     0.027 H 
ENDBRANCH  42  45
ENDBRANCH  40  42
ENDBRANCH  37  40
ENDBRANCH   6  37
TORSDOF 7
ENDMDL
