MODEL 1
REMARK VINA RESULT:     -10.5      0.000      0.000
REMARK SMILES CNc1ccc2ccc(OC[C@H]3O[C@@H](n4cc(-c5cn(C)cn5)c5c(N)ncnc54)[C@@H](F)[C@@H]3O)cc2n1
REMARK SMILES IDX 11 1 10 4 9 5 3 6 4 7 37 8 5 9 36 11 6 12 35 14 7 15 8 17
REMARK SMILES IDX 2 20 1 22 12 26 13 27 33 28 14 30 31 31 32 34 34 36 15 38
REMARK SMILES IDX 16 39 30 40 17 41 24 43 29 44 25 45 28 46 27 47 18 49 19 50
REMARK SMILES IDX 23 51 20 52 22 54 21 56 26 60
REMARK H PARENT 11 2 11 3 4 10 5 13 35 16 7 18 8 19 2 21 1 23 1 24 1 25 12 29
REMARK H PARENT 33 32 14 33 31 35 34 37 16 42 28 48 19 53 22 55 21 57 21 58
REMARK H PARENT 21 59 26 61 26 62
REMARK Flexibility Score: inf
ROOT
ATOM      1  C   UNL     1     -47.605  36.503  27.360  1.00  0.00     0.117 C 
ATOM      2  H   UNL     1     -48.217  37.321  27.756  1.00  0.00     0.073 H 
ATOM      3  H   UNL     1     -47.193  36.820  26.394  1.00  0.00     0.073 H 
ENDROOT
BRANCH   1   4
ATOM      4  O   UNL     1     -48.384  35.317  27.198  1.00  0.00    -0.491 OA
BRANCH   4   5
ATOM      5  C   UNL     1     -47.883  34.348  26.373  1.00  0.00     0.121 A 
ATOM      6  C   UNL     1     -48.780  29.999  24.641  1.00  0.00     0.126 A 
ATOM      7  C   UNL     1     -47.608  30.008  23.891  1.00  0.00    -0.019 A 
ATOM      8  N   UNL     1     -49.133  31.049  25.410  1.00  0.00    -0.231 NA
ATOM      9  C   UNL     1     -46.767  31.114  23.951  1.00  0.00    -0.049 A 
ATOM     10  H   UNL     1     -47.356  29.166  23.255  1.00  0.00     0.066 H 
ATOM     11  C   UNL     1     -48.325  32.123  25.471  1.00  0.00     0.076 A 
ATOM     12  C   UNL     1     -47.117  32.201  24.754  1.00  0.00     0.001 A 
ATOM     13  H   UNL     1     -45.851  31.121  23.365  1.00  0.00     0.063 H 
ATOM     14  C   UNL     1     -48.682  33.204  26.267  1.00  0.00     0.007 A 
ATOM     15  C   UNL     1     -46.307  33.345  24.851  1.00  0.00    -0.049 A 
ATOM     16  H   UNL     1     -49.616  33.151  26.821  1.00  0.00     0.069 H 
ATOM     17  C   UNL     1     -46.690  34.416  25.661  1.00  0.00    -0.019 A 
ATOM     18  H   UNL     1     -45.375  33.408  24.295  1.00  0.00     0.063 H 
ATOM     19  H   UNL     1     -46.038  35.281  25.706  1.00  0.00     0.066 H 
BRANCH   6  20
ATOM     20  N   UNL     1     -49.618  28.874  24.534  1.00  0.00    -0.373 N 
ATOM     21  H   UNL     1     -49.994  28.655  25.452  1.00  0.00     0.161 HD
BRANCH  20  22
ATOM     22  C   UNL     1     -50.669  29.008  23.538  1.00  0.00     0.005 C 
ATOM     23  H   UNL     1     -50.464  29.832  22.845  1.00  0.00     0.045 H 
ATOM     24  H   UNL     1     -50.714  28.088  22.946  1.00  0.00     0.045 H 
ATOM     25  H   UNL     1     -51.651  29.150  24.003  1.00  0.00     0.045 H 
ENDBRANCH  20  22
ENDBRANCH   6  20
ENDBRANCH   4   5
ENDBRANCH   1   4
BRANCH   1  26
ATOM     26  C   UNL     1     -46.445  36.196  28.314  1.00  0.00     0.123 C 
ATOM     27  O   UNL     1     -45.292  36.965  27.907  1.00  0.00    -0.345 OA
ATOM     28  C   UNL     1     -46.748  36.567  29.770  1.00  0.00     0.119 C 
ATOM     29  H   UNL     1     -46.182  35.134  28.237  1.00  0.00     0.067 H 
ATOM     30  C   UNL     1     -45.008  37.923  28.958  1.00  0.00     0.169 C 
ATOM     31  C   UNL     1     -46.236  37.986  29.855  1.00  0.00     0.173 C 
ATOM     32  H   UNL     1     -47.806  36.482  30.033  1.00  0.00     0.066 H 
ATOM     33  H   UNL     1     -44.136  37.534  29.499  1.00  0.00     0.088 H 
ATOM     34  F   UNL     1     -47.184  38.813  29.328  1.00  0.00    -0.239 F 
ATOM     35  H   UNL     1     -46.006  38.325  30.868  1.00  0.00     0.074 H 
BRANCH  28  36
ATOM     36  O   UNL     1     -45.999  35.742  30.670  1.00  0.00    -0.387 OA
ATOM     37  H   UNL     1     -45.060  35.986  30.577  1.00  0.00     0.211 HD
ENDBRANCH  28  36
BRANCH  30  38
ATOM     38  N   UNL     1     -44.630  39.202  28.382  1.00  0.00    -0.302 N 
ATOM     39  C   UNL     1     -45.206  39.837  27.311  1.00  0.00     0.019 A 
ATOM     40  C   UNL     1     -43.598  39.968  28.867  1.00  0.00     0.148 A 
ATOM     41  C   UNL     1     -44.540  41.033  27.115  1.00  0.00     0.033 A 
ATOM     42  H   UNL     1     -46.044  39.398  26.788  1.00  0.00     0.083 H 
ATOM     43  C   UNL     1     -43.497  41.116  28.088  1.00  0.00     0.071 A 
ATOM     44  N   UNL     1     -42.832  39.636  29.921  1.00  0.00    -0.218 NA
ATOM     45  C   UNL     1     -42.462  42.004  28.435  1.00  0.00     0.137 A 
ATOM     46  C   UNL     1     -41.903  40.574  30.168  1.00  0.00     0.120 A 
ATOM     47  N   UNL     1     -41.683  41.719  29.500  1.00  0.00    -0.219 NA
ATOM     48  H   UNL     1     -41.246  40.385  31.010  1.00  0.00     0.106 H 
BRANCH  41  49
ATOM     49  C   UNL     1     -44.863  42.029  26.096  1.00  0.00     0.091 A 
ATOM     50  C   UNL     1     -44.247  42.226  24.879  1.00  0.00     0.031 A 
ATOM     51  N   UNL     1     -45.911  42.908  26.253  1.00  0.00    -0.237 NA
ATOM     52  N   UNL     1     -44.926  43.258  24.303  1.00  0.00    -0.340 N 
ATOM     53  H   UNL     1     -43.408  41.736  24.406  1.00  0.00     0.084 H 
ATOM     54  C   UNL     1     -45.919  43.637  25.159  1.00  0.00     0.095 A 
ATOM     55  H   UNL     1     -46.612  44.439  24.940  1.00  0.00     0.104 H 
BRANCH  52  56
ATOM     56  C   UNL     1     -44.656  43.855  23.020  1.00  0.00     0.012 C 
ATOM     57  H   UNL     1     -45.178  44.814  22.965  1.00  0.00     0.046 H 
ATOM     58  H   UNL     1     -45.018  43.177  22.242  1.00  0.00     0.046 H 
ATOM     59  H   UNL     1     -43.580  44.012  22.908  1.00  0.00     0.046 H 
ENDBRANCH  52  56
ENDBRANCH  41  49
BRANCH  45  60
ATOM     60  N   UNL     1     -42.175  43.172  27.747  1.00  0.00    -0.383 N 
ATOM     61  H   UNL     1     -42.590  43.189  26.811  1.00  0.00     0.158 HD
ATOM     62  H   UNL     1     -42.317  43.990  28.322  1.00  0.00     0.158 HD
ENDBRANCH  45  60
ENDBRANCH  30  38
ENDBRANCH   1  26
TORSDOF 10
ENDMDL
MODEL 2
REMARK VINA RESULT:      -9.4      1.814      2.370
REMARK SMILES CNc1ccc2ccc(OC[C@H]3O[C@@H](n4cc(-c5cn(C)cn5)c5c(N)ncnc54)[C@@H](F)[C@@H]3O)cc2n1
REMARK SMILES IDX 11 1 10 4 9 5 3 6 4 7 37 8 5 9 36 11 6 12 35 14 7 15 8 17
REMARK SMILES IDX 2 20 1 22 12 26 13 27 33 28 14 30 31 31 32 34 34 36 15 38
REMARK SMILES IDX 16 39 30 40 17 41 24 43 29 44 25 45 28 46 27 47 18 49 19 50
REMARK SMILES IDX 23 51 20 52 22 54 21 56 26 60
REMARK H PARENT 11 2 11 3 4 10 5 13 35 16 7 18 8 19 2 21 1 23 1 24 1 25 12 29
REMARK H PARENT 33 32 14 33 31 35 34 37 16 42 28 48 19 53 22 55 21 57 21 58
REMARK H PARENT 21 59 26 61 26 62
REMARK Flexibility Score: inf
ROOT
ATOM      1  C   UNL     1     -45.991  35.483  26.974  1.00  0.00     0.117 C 
ATOM      2  H   UNL     1     -46.470  35.767  26.030  1.00  0.00     0.073 H 
ATOM      3  H   UNL     1     -44.953  35.839  26.952  1.00  0.00     0.073 H 
ENDROOT
BRANCH   1   4
ATOM      4  O   UNL     1     -46.020  34.067  27.154  1.00  0.00    -0.491 OA
BRANCH   4   5
ATOM      5  C   UNL     1     -46.839  33.348  26.326  1.00  0.00     0.121 A 
ATOM      6  C   UNL     1     -46.935  31.010  22.174  1.00  0.00     0.126 A 
ATOM      7  C   UNL     1     -48.272  30.667  22.347  1.00  0.00    -0.019 A 
ATOM      8  N   UNL     1     -46.266  31.730  23.098  1.00  0.00    -0.231 NA
ATOM      9  C   UNL     1     -48.944  31.093  23.488  1.00  0.00    -0.049 A 
ATOM     10  H   UNL     1     -48.785  30.063  21.607  1.00  0.00     0.066 H 
ATOM     11  C   UNL     1     -46.909  32.143  24.205  1.00  0.00     0.076 A 
ATOM     12  C   UNL     1     -48.264  31.848  24.446  1.00  0.00     0.001 A 
ATOM     13  H   UNL     1     -49.988  30.825  23.624  1.00  0.00     0.063 H 
ATOM     14  C   UNL     1     -46.225  32.889  25.155  1.00  0.00     0.007 A 
ATOM     15  C   UNL     1     -48.891  32.303  25.617  1.00  0.00    -0.049 A 
ATOM     16  H   UNL     1     -45.177  33.117  24.977  1.00  0.00     0.069 H 
ATOM     17  C   UNL     1     -48.179  33.053  26.555  1.00  0.00    -0.019 A 
ATOM     18  H   UNL     1     -49.937  32.073  25.806  1.00  0.00     0.063 H 
ATOM     19  H   UNL     1     -48.699  33.383  27.448  1.00  0.00     0.066 H 
BRANCH   6  20
ATOM     20  N   UNL     1     -46.281  30.540  21.020  1.00  0.00    -0.373 N 
ATOM     21  H   UNL     1     -46.832  29.792  20.611  1.00  0.00     0.161 HD
BRANCH  20  22
ATOM     22  C   UNL     1     -45.971  31.576  20.048  1.00  0.00     0.005 C 
ATOM     23  H   UNL     1     -46.694  31.585  19.225  1.00  0.00     0.045 H 
ATOM     24  H   UNL     1     -46.027  32.552  20.541  1.00  0.00     0.045 H 
ATOM     25  H   UNL     1     -44.957  31.465  19.649  1.00  0.00     0.045 H 
ENDBRANCH  20  22
ENDBRANCH   6  20
ENDBRANCH   4   5
ENDBRANCH   1   4
BRANCH   1  26
ATOM     26  C   UNL     1     -46.712  36.139  28.156  1.00  0.00     0.123 C 
ATOM     27  O   UNL     1     -45.853  37.152  28.721  1.00  0.00    -0.345 OA
ATOM     28  C   UNL     1     -48.023  36.827  27.755  1.00  0.00     0.119 C 
ATOM     29  H   UNL     1     -46.898  35.387  28.931  1.00  0.00     0.067 H 
ATOM     30  C   UNL     1     -46.483  38.439  28.500  1.00  0.00     0.169 C 
ATOM     31  C   UNL     1     -47.569  38.235  27.453  1.00  0.00     0.173 C 
ATOM     32  H   UNL     1     -48.525  36.352  26.907  1.00  0.00     0.066 H 
ATOM     33  H   UNL     1     -46.910  38.741  29.465  1.00  0.00     0.088 H 
ATOM     34  F   UNL     1     -47.043  38.252  26.194  1.00  0.00    -0.239 F 
ATOM     35  H   UNL     1     -48.360  38.988  27.507  1.00  0.00     0.074 H 
BRANCH  28  36
ATOM     36  O   UNL     1     -48.939  36.853  28.855  1.00  0.00    -0.387 OA
ATOM     37  H   UNL     1     -48.488  36.452  29.621  1.00  0.00     0.211 HD
ENDBRANCH  28  36
BRANCH  30  38
ATOM     38  N   UNL     1     -45.487  39.430  28.134  1.00  0.00    -0.302 N 
ATOM     39  C   UNL     1     -45.528  40.302  27.075  1.00  0.00     0.019 A 
ATOM     40  C   UNL     1     -44.325  39.623  28.839  1.00  0.00     0.148 A 
ATOM     41  C   UNL     1     -44.381  41.072  27.110  1.00  0.00     0.033 A 
ATOM     42  H   UNL     1     -46.369  40.314  26.395  1.00  0.00     0.083 H 
ATOM     43  C   UNL     1     -43.594  40.632  28.220  1.00  0.00     0.071 A 
ATOM     44  N   UNL     1     -43.979  38.936  29.942  1.00  0.00    -0.218 NA
ATOM     45  C   UNL     1     -42.351  40.937  28.804  1.00  0.00     0.137 A 
ATOM     46  C   UNL     1     -42.791  39.339  30.420  1.00  0.00     0.120 A 
ATOM     47  N   UNL     1     -41.976  40.286  29.925  1.00  0.00    -0.219 NA
ATOM     48  H   UNL     1     -42.441  38.837  31.316  1.00  0.00     0.106 H 
BRANCH  41  49
ATOM     49  C   UNL     1     -44.049  42.148  26.179  1.00  0.00     0.091 A 
ATOM     50  C   UNL     1     -44.322  42.213  24.829  1.00  0.00     0.031 A 
ATOM     51  N   UNL     1     -43.416  43.296  26.599  1.00  0.00    -0.237 NA
ATOM     52  N   UNL     1     -43.823  43.417  24.427  1.00  0.00    -0.340 N 
ATOM     53  H   UNL     1     -44.803  41.521  24.154  1.00  0.00     0.084 H 
ATOM     54  C   UNL     1     -43.290  44.037  25.520  1.00  0.00     0.095 A 
ATOM     55  H   UNL     1     -42.828  45.015  25.477  1.00  0.00     0.104 H 
BRANCH  52  56
ATOM     56  C   UNL     1     -43.845  43.954  23.091  1.00  0.00     0.012 C 
ATOM     57  H   UNL     1     -44.053  45.025  23.149  1.00  0.00     0.046 H 
ATOM     58  H   UNL     1     -44.629  43.441  22.527  1.00  0.00     0.046 H 
ATOM     59  H   UNL     1     -42.875  43.790  22.614  1.00  0.00     0.046 H 
ENDBRANCH  52  56
ENDBRANCH  41  49
BRANCH  45  60
ATOM     60  N   UNL     1     -41.464  41.876  28.301  1.00  0.00    -0.383 N 
ATOM     61  H   UNL     1     -40.486  41.598  28.424  1.00  0.00     0.158 HD
ATOM     62  H   UNL     1     -41.735  42.194  27.383  1.00  0.00     0.158 HD
ENDBRANCH  45  60
ENDBRANCH  30  38
ENDBRANCH   1  26
TORSDOF 10
ENDMDL
MODEL 3
REMARK VINA RESULT:      -8.9      1.882      2.768
REMARK SMILES CNc1ccc2ccc(OC[C@H]3O[C@@H](n4cc(-c5cn(C)cn5)c5c(N)ncnc54)[C@@H](F)[C@@H]3O)cc2n1
REMARK SMILES IDX 11 1 10 4 9 5 3 6 4 7 37 8 5 9 36 11 6 12 35 14 7 15 8 17
REMARK SMILES IDX 2 20 1 22 12 26 13 27 33 28 14 30 31 31 32 34 34 36 15 38
REMARK SMILES IDX 16 39 30 40 17 41 24 43 29 44 25 45 28 46 27 47 18 49 19 50
REMARK SMILES IDX 23 51 20 52 22 54 21 56 26 60
REMARK H PARENT 11 2 11 3 4 10 5 13 35 16 7 18 8 19 2 21 1 23 1 24 1 25 12 29
REMARK H PARENT 33 32 14 33 31 35 34 37 16 42 28 48 19 53 22 55 21 57 21 58
REMARK H PARENT 21 59 26 61 26 62
REMARK Flexibility Score: inf
ROOT
ATOM      1  C   UNL     1     -45.568  37.026  27.626  1.00  0.00     0.117 C 
ATOM      2  H   UNL     1     -45.768  37.078  26.550  1.00  0.00     0.073 H 
ATOM      3  H   UNL     1     -44.506  37.249  27.788  1.00  0.00     0.073 H 
ENDROOT
BRANCH   1   4
ATOM      4  O   UNL     1     -45.882  35.732  28.141  1.00  0.00    -0.491 OA
BRANCH   4   5
ATOM      5  C   UNL     1     -46.712  34.946  27.390  1.00  0.00     0.121 A 
ATOM      6  C   UNL     1     -46.733  31.367  24.241  1.00  0.00     0.126 A 
ATOM      7  C   UNL     1     -48.123  31.379  24.171  1.00  0.00    -0.019 A 
ATOM      8  N   UNL     1     -46.061  32.218  25.043  1.00  0.00    -0.231 NA
ATOM      9  C   UNL     1     -48.837  32.301  24.928  1.00  0.00    -0.049 A 
ATOM     10  H   UNL     1     -48.647  30.667  23.543  1.00  0.00     0.066 H 
ATOM     11  C   UNL     1     -46.746  33.111  25.779  1.00  0.00     0.076 A 
ATOM     12  C   UNL     1     -48.150  33.194  25.753  1.00  0.00     0.001 A 
ATOM     13  H   UNL     1     -49.923  32.310  24.874  1.00  0.00     0.063 H 
ATOM     14  C   UNL     1     -46.056  33.993  26.602  1.00  0.00     0.007 A 
ATOM     15  C   UNL     1     -48.820  34.145  26.539  1.00  0.00    -0.049 A 
ATOM     16  H   UNL     1     -44.971  33.932  26.630  1.00  0.00     0.069 H 
ATOM     17  C   UNL     1     -48.101  35.021  27.356  1.00  0.00    -0.019 A 
ATOM     18  H   UNL     1     -49.906  34.208  26.522  1.00  0.00     0.063 H 
ATOM     19  H   UNL     1     -48.656  35.738  27.950  1.00  0.00     0.066 H 
BRANCH   6  20
ATOM     20  N   UNL     1     -46.046  30.403  23.482  1.00  0.00    -0.373 N 
ATOM     21  H   UNL     1     -46.527  29.513  23.566  1.00  0.00     0.161 HD
BRANCH  20  22
ATOM     22  C   UNL     1     -45.840  30.776  22.092  1.00  0.00     0.005 C 
ATOM     23  H   UNL     1     -46.776  31.089  21.616  1.00  0.00     0.045 H 
ATOM     24  H   UNL     1     -45.154  31.629  22.053  1.00  0.00     0.045 H 
ATOM     25  H   UNL     1     -45.387  29.961  21.518  1.00  0.00     0.045 H 
ENDBRANCH  20  22
ENDBRANCH   6  20
ENDBRANCH   4   5
ENDBRANCH   1   4
BRANCH   1  26
ATOM     26  C   UNL     1     -46.409  38.065  28.375  1.00  0.00     0.123 C 
ATOM     27  O   UNL     1     -45.657  39.294  28.468  1.00  0.00    -0.345 OA
ATOM     28  C   UNL     1     -47.730  38.393  27.668  1.00  0.00     0.119 C 
ATOM     29  H   UNL     1     -46.600  37.712  29.395  1.00  0.00     0.067 H 
ATOM     30  C   UNL     1     -46.351  40.297  27.683  1.00  0.00     0.169 C 
ATOM     31  C   UNL     1     -47.347  39.564  26.795  1.00  0.00     0.173 C 
ATOM     32  H   UNL     1     -48.141  37.555  27.098  1.00  0.00     0.066 H 
ATOM     33  H   UNL     1     -46.861  40.950  28.402  1.00  0.00     0.088 H 
ATOM     34  F   UNL     1     -46.737  39.078  25.675  1.00  0.00    -0.239 F 
ATOM     35  H   UNL     1     -48.185  40.193  26.486  1.00  0.00     0.074 H 
BRANCH  28  36
ATOM     36  O   UNL     1     -48.720  38.815  28.613  1.00  0.00    -0.387 OA
ATOM     37  H   UNL     1     -48.439  38.499  29.492  1.00  0.00     0.211 HD
ENDBRANCH  28  36
BRANCH  30  38
ATOM     38  N   UNL     1     -45.396  41.112  26.953  1.00  0.00    -0.302 N 
ATOM     39  C   UNL     1     -45.614  41.813  25.794  1.00  0.00     0.019 A 
ATOM     40  C   UNL     1     -44.096  41.289  27.357  1.00  0.00     0.148 A 
ATOM     41  C   UNL     1     -44.437  42.457  25.457  1.00  0.00     0.033 A 
ATOM     42  H   UNL     1     -46.582  41.809  25.312  1.00  0.00     0.083 H 
ATOM     43  C   UNL     1     -43.455  42.111  26.436  1.00  0.00     0.071 A 
ATOM     44  N   UNL     1     -43.561  40.745  28.464  1.00  0.00    -0.218 NA
ATOM     45  C   UNL     1     -42.095  42.372  26.687  1.00  0.00     0.137 A 
ATOM     46  C   UNL     1     -42.271  41.091  28.607  1.00  0.00     0.120 A 
ATOM     47  N   UNL     1     -41.524  41.863  27.799  1.00  0.00    -0.219 NA
ATOM     48  H   UNL     1     -41.766  40.696  29.483  1.00  0.00     0.106 H 
BRANCH  41  49
ATOM     49  C   UNL     1     -44.249  43.340  24.308  1.00  0.00     0.091 A 
ATOM     50  C   UNL     1     -45.127  44.279  23.809  1.00  0.00     0.031 A 
ATOM     51  N   UNL     1     -43.080  43.340  23.582  1.00  0.00    -0.237 NA
ATOM     52  N   UNL     1     -44.478  44.839  22.749  1.00  0.00    -0.340 N 
ATOM     53  H   UNL     1     -46.123  44.570  24.111  1.00  0.00     0.084 H 
ATOM     54  C   UNL     1     -43.252  44.250  22.648  1.00  0.00     0.095 A 
ATOM     55  H   UNL     1     -42.530  44.516  21.886  1.00  0.00     0.104 H 
BRANCH  52  56
ATOM     56  C   UNL     1     -44.983  45.870  21.879  1.00  0.00     0.012 C 
ATOM     57  H   UNL     1     -44.150  46.506  21.571  1.00  0.00     0.046 H 
ATOM     58  H   UNL     1     -45.726  46.452  22.431  1.00  0.00     0.046 H 
ATOM     59  H   UNL     1     -45.446  45.413  21.000  1.00  0.00     0.046 H 
ENDBRANCH  52  56
ENDBRANCH  41  49
BRANCH  45  60
ATOM     60  N   UNL     1     -41.281  43.127  25.858  1.00  0.00    -0.383 N 
ATOM     61  H   UNL     1     -40.973  42.608  25.030  1.00  0.00     0.158 HD
ATOM     62  H   UNL     1     -41.658  44.050  25.703  1.00  0.00     0.158 HD
ENDBRANCH  45  60
ENDBRANCH  30  38
ENDBRANCH   1  26
TORSDOF 10
ENDMDL
MODEL 4
REMARK VINA RESULT:      -8.8      2.502      3.408
REMARK SMILES CNc1ccc2ccc(OC[C@H]3O[C@@H](n4cc(-c5cn(C)cn5)c5c(N)ncnc54)[C@@H](F)[C@@H]3O)cc2n1
REMARK SMILES IDX 11 1 10 4 9 5 3 6 4 7 37 8 5 9 36 11 6 12 35 14 7 15 8 17
REMARK SMILES IDX 2 20 1 22 12 26 13 27 33 28 14 30 31 31 32 34 34 36 15 38
REMARK SMILES IDX 16 39 30 40 17 41 24 43 29 44 25 45 28 46 27 47 18 49 19 50
REMARK SMILES IDX 23 51 20 52 22 54 21 56 26 60
REMARK H PARENT 11 2 11 3 4 10 5 13 35 16 7 18 8 19 2 21 1 23 1 24 1 25 12 29
REMARK H PARENT 33 32 14 33 31 35 34 37 16 42 28 48 19 53 22 55 21 57 21 58
REMARK H PARENT 21 59 26 61 26 62
REMARK Flexibility Score: inf
ROOT
ATOM      1  C   UNL     1     -46.705  35.252  26.164  1.00  0.00     0.117 C 
ATOM      2  H   UNL     1     -47.247  36.107  25.743  1.00  0.00     0.073 H 
ATOM      3  H   UNL     1     -45.911  34.971  25.461  1.00  0.00     0.073 H 
ENDROOT
BRANCH   1   4
ATOM      4  O   UNL     1     -47.585  34.148  26.378  1.00  0.00    -0.491 OA
BRANCH   4   5
ATOM      5  C   UNL     1     -47.399  33.039  25.599  1.00  0.00     0.121 A 
ATOM      6  C   UNL     1     -49.105  28.673  24.736  1.00  0.00     0.126 A 
ATOM      7  C   UNL     1     -48.159  28.452  23.740  1.00  0.00    -0.019 A 
ATOM      8  N   UNL     1     -49.156  29.837  25.415  1.00  0.00    -0.231 NA
ATOM      9  C   UNL     1     -47.227  29.444  23.451  1.00  0.00    -0.049 A 
ATOM     10  H   UNL     1     -48.153  27.520  23.185  1.00  0.00     0.066 H 
ATOM     11  C   UNL     1     -48.259  30.802  25.139  1.00  0.00     0.076 A 
ATOM     12  C   UNL     1     -47.263  30.648  24.156  1.00  0.00     0.001 A 
ATOM     13  H   UNL     1     -46.488  29.271  22.673  1.00  0.00     0.063 H 
ATOM     14  C   UNL     1     -48.304  31.999  25.840  1.00  0.00     0.007 A 
ATOM     15  C   UNL     1     -46.350  31.684  23.905  1.00  0.00    -0.049 A 
ATOM     16  H   UNL     1     -49.073  32.125  26.598  1.00  0.00     0.069 H 
ATOM     17  C   UNL     1     -46.417  32.878  24.627  1.00  0.00    -0.019 A 
ATOM     18  H   UNL     1     -45.581  31.569  23.144  1.00  0.00     0.063 H 
ATOM     19  H   UNL     1     -45.695  33.654  24.400  1.00  0.00     0.066 H 
BRANCH   6  20
ATOM     20  N   UNL     1     -50.047  27.658  24.983  1.00  0.00    -0.373 N 
ATOM     21  H   UNL     1     -50.176  27.115  24.134  1.00  0.00     0.161 HD
BRANCH  20  22
ATOM     22  C   UNL     1     -49.726  26.812  26.122  1.00  0.00     0.005 C 
ATOM     23  H   UNL     1     -50.607  26.269  26.480  1.00  0.00     0.045 H 
ATOM     24  H   UNL     1     -48.987  26.066  25.811  1.00  0.00     0.045 H 
ATOM     25  H   UNL     1     -49.288  27.391  26.943  1.00  0.00     0.045 H 
ENDBRANCH  20  22
ENDBRANCH   6  20
ENDBRANCH   4   5
ENDBRANCH   1   4
BRANCH   1  26
ATOM     26  C   UNL     1     -46.066  35.632  27.503  1.00  0.00     0.123 C 
ATOM     27  O   UNL     1     -45.677  37.022  27.455  1.00  0.00    -0.345 OA
ATOM     28  C   UNL     1     -47.019  35.468  28.694  1.00  0.00     0.119 C 
ATOM     29  H   UNL     1     -45.159  35.036  27.655  1.00  0.00     0.067 H 
ATOM     30  C   UNL     1     -46.492  37.742  28.415  1.00  0.00     0.169 C 
ATOM     31  C   UNL     1     -47.656  36.834  28.788  1.00  0.00     0.173 C 
ATOM     32  H   UNL     1     -47.752  34.667  28.560  1.00  0.00     0.066 H 
ATOM     33  H   UNL     1     -45.845  37.940  29.279  1.00  0.00     0.088 H 
ATOM     34  F   UNL     1     -48.649  36.906  27.857  1.00  0.00    -0.239 F 
ATOM     35  H   UNL     1     -48.081  37.069  29.768  1.00  0.00     0.074 H 
BRANCH  28  36
ATOM     36  O   UNL     1     -46.287  35.205  29.896  1.00  0.00    -0.387 OA
ATOM     37  H   UNL     1     -45.652  34.491  29.702  1.00  0.00     0.211 HD
ENDBRANCH  28  36
BRANCH  30  38
ATOM     38  N   UNL     1     -46.895  39.025  27.868  1.00  0.00    -0.302 N 
ATOM     39  C   UNL     1     -48.147  39.586  27.893  1.00  0.00     0.019 A 
ATOM     40  C   UNL     1     -46.026  39.875  27.228  1.00  0.00     0.148 A 
ATOM     41  C   UNL     1     -48.076  40.818  27.270  1.00  0.00     0.033 A 
ATOM     42  H   UNL     1     -48.978  39.074  28.359  1.00  0.00     0.083 H 
ATOM     43  C   UNL     1     -46.732  41.003  26.821  1.00  0.00     0.071 A 
ATOM     44  N   UNL     1     -44.718  39.630  27.042  1.00  0.00    -0.218 NA
ATOM     45  C   UNL     1     -45.991  41.971  26.118  1.00  0.00     0.137 A 
ATOM     46  C   UNL     1     -44.117  40.637  26.388  1.00  0.00     0.120 A 
ATOM     47  N   UNL     1     -44.669  41.774  25.929  1.00  0.00    -0.219 NA
ATOM     48  H   UNL     1     -43.055  40.520  26.203  1.00  0.00     0.106 H 
BRANCH  41  49
ATOM     49  C   UNL     1     -49.184  41.758  27.114  1.00  0.00     0.091 A 
ATOM     50  C   UNL     1     -49.971  42.310  28.103  1.00  0.00     0.031 A 
ATOM     51  N   UNL     1     -49.554  42.239  25.879  1.00  0.00    -0.237 NA
ATOM     52  N   UNL     1     -50.843  43.125  27.444  1.00  0.00    -0.340 N 
ATOM     53  H   UNL     1     -49.980  42.183  29.176  1.00  0.00     0.084 H 
ATOM     54  C   UNL     1     -50.557  43.057  26.111  1.00  0.00     0.095 A 
ATOM     55  H   UNL     1     -51.104  43.614  25.361  1.00  0.00     0.104 H 
BRANCH  52  56
ATOM     56  C   UNL     1     -51.887  43.923  28.034  1.00  0.00     0.012 C 
ATOM     57  H   UNL     1     -51.671  44.050  29.097  1.00  0.00     0.046 H 
ATOM     58  H   UNL     1     -52.838  43.400  27.897  1.00  0.00     0.046 H 
ATOM     59  H   UNL     1     -51.924  44.899  27.544  1.00  0.00     0.046 H 
ENDBRANCH  52  56
ENDBRANCH  41  49
BRANCH  45  60
ATOM     60  N   UNL     1     -46.529  43.134  25.593  1.00  0.00    -0.383 N 
ATOM     61  H   UNL     1     -46.577  43.119  24.570  1.00  0.00     0.158 HD
ATOM     62  H   UNL     1     -47.366  43.415  26.083  1.00  0.00     0.158 HD
ENDBRANCH  45  60
ENDBRANCH  30  38
ENDBRANCH   1  26
TORSDOF 10
ENDMDL
MODEL 5
REMARK VINA RESULT:      -8.8      3.897      5.948
REMARK SMILES CNc1ccc2ccc(OC[C@H]3O[C@@H](n4cc(-c5cn(C)cn5)c5c(N)ncnc54)[C@@H](F)[C@@H]3O)cc2n1
REMARK SMILES IDX 11 1 10 4 9 5 3 6 4 7 37 8 5 9 36 11 6 12 35 14 7 15 8 17
REMARK SMILES IDX 2 20 1 22 12 26 13 27 33 28 14 30 31 31 32 34 34 36 15 38
REMARK SMILES IDX 16 39 30 40 17 41 24 43 29 44 25 45 28 46 27 47 18 49 19 50
REMARK SMILES IDX 23 51 20 52 22 54 21 56 26 60
REMARK H PARENT 11 2 11 3 4 10 5 13 35 16 7 18 8 19 2 21 1 23 1 24 1 25 12 29
REMARK H PARENT 33 32 14 33 31 35 34 37 16 42 28 48 19 53 22 55 21 57 21 58
REMARK H PARENT 21 59 26 61 26 62
REMARK Flexibility Score: inf
ROOT
ATOM      1  C   UNL     1     -47.619  36.460  27.418  1.00  0.00     0.117 C 
ATOM      2  H   UNL     1     -47.561  37.497  27.067  1.00  0.00     0.073 H 
ATOM      3  H   UNL     1     -47.560  35.799  26.544  1.00  0.00     0.073 H 
ENDROOT
BRANCH   1   4
ATOM      4  O   UNL     1     -48.836  36.229  28.128  1.00  0.00    -0.491 OA
BRANCH   4   5
ATOM      5  C   UNL     1     -49.810  37.183  28.025  1.00  0.00     0.121 A 
ATOM      6  C   UNL     1     -50.526  41.896  28.013  1.00  0.00     0.126 A 
ATOM      7  C   UNL     1     -51.896  41.732  27.829  1.00  0.00    -0.019 A 
ATOM      8  N   UNL     1     -49.694  40.838  28.093  1.00  0.00    -0.231 NA
ATOM      9  C   UNL     1     -52.425  40.448  27.748  1.00  0.00    -0.049 A 
ATOM     10  H   UNL     1     -52.545  42.596  27.738  1.00  0.00     0.066 H 
ATOM     11  C   UNL     1     -50.199  39.593  28.012  1.00  0.00     0.076 A 
ATOM     12  C   UNL     1     -51.573  39.346  27.841  1.00  0.00     0.001 A 
ATOM     13  H   UNL     1     -53.495  40.320  27.604  1.00  0.00     0.063 H 
ATOM     14  C   UNL     1     -49.345  38.501  28.100  1.00  0.00     0.007 A 
ATOM     15  C   UNL     1     -52.052  38.028  27.763  1.00  0.00    -0.049 A 
ATOM     16  H   UNL     1     -48.282  38.686  28.229  1.00  0.00     0.069 H 
ATOM     17  C   UNL     1     -51.171  36.949  27.857  1.00  0.00    -0.019 A 
ATOM     18  H   UNL     1     -53.114  37.834  27.627  1.00  0.00     0.063 H 
ATOM     19  H   UNL     1     -51.581  35.947  27.789  1.00  0.00     0.066 H 
BRANCH   6  20
ATOM     20  N   UNL     1     -50.024  43.209  28.065  1.00  0.00    -0.373 N 
ATOM     21  H   UNL     1     -49.016  43.172  28.181  1.00  0.00     0.161 HD
BRANCH  20  22
ATOM     22  C   UNL     1     -50.407  44.037  26.932  1.00  0.00     0.005 C 
ATOM     23  H   UNL     1     -50.031  43.627  25.988  1.00  0.00     0.045 H 
ATOM     24  H   UNL     1     -51.500  44.062  26.865  1.00  0.00     0.045 H 
ATOM     25  H   UNL     1     -50.059  45.069  27.051  1.00  0.00     0.045 H 
ENDBRANCH  20  22
ENDBRANCH   6  20
ENDBRANCH   4   5
ENDBRANCH   1   4
BRANCH   1  26
ATOM     26  C   UNL     1     -46.444  36.148  28.351  1.00  0.00     0.123 C 
ATOM     27  O   UNL     1     -45.295  36.911  27.925  1.00  0.00    -0.345 OA
ATOM     28  C   UNL     1     -46.720  36.519  29.813  1.00  0.00     0.119 C 
ATOM     29  H   UNL     1     -46.187  35.085  28.269  1.00  0.00     0.067 H 
ATOM     30  C   UNL     1     -44.988  37.868  28.971  1.00  0.00     0.169 C 
ATOM     31  C   UNL     1     -46.201  37.935  29.890  1.00  0.00     0.173 C 
ATOM     32  H   UNL     1     -47.775  36.439  30.093  1.00  0.00     0.066 H 
ATOM     33  H   UNL     1     -44.110  37.475  29.497  1.00  0.00     0.088 H 
ATOM     34  F   UNL     1     -47.154  38.766  29.379  1.00  0.00    -0.239 F 
ATOM     35  H   UNL     1     -45.952  38.273  30.899  1.00  0.00     0.074 H 
BRANCH  28  36
ATOM     36  O   UNL     1     -45.960  35.690  30.699  1.00  0.00    -0.387 OA
ATOM     37  H   UNL     1     -45.787  36.208  31.507  1.00  0.00     0.211 HD
ENDBRANCH  28  36
BRANCH  30  38
ATOM     38  N   UNL     1     -44.615  39.145  28.390  1.00  0.00    -0.302 N 
ATOM     39  C   UNL     1     -45.192  39.773  27.316  1.00  0.00     0.019 A 
ATOM     40  C   UNL     1     -43.586  39.917  28.873  1.00  0.00     0.148 A 
ATOM     41  C   UNL     1     -44.531  40.970  27.114  1.00  0.00     0.033 A 
ATOM     42  H   UNL     1     -46.028  39.328  26.793  1.00  0.00     0.083 H 
ATOM     43  C   UNL     1     -43.489  41.062  28.088  1.00  0.00     0.071 A 
ATOM     44  N   UNL     1     -42.820  39.593  29.929  1.00  0.00    -0.218 NA
ATOM     45  C   UNL     1     -42.457  41.955  28.431  1.00  0.00     0.137 A 
ATOM     46  C   UNL     1     -41.895  40.536  30.172  1.00  0.00     0.120 A 
ATOM     47  N   UNL     1     -41.679  41.679  29.499  1.00  0.00    -0.219 NA
ATOM     48  H   UNL     1     -41.238  40.354  31.016  1.00  0.00     0.106 H 
BRANCH  41  49
ATOM     49  C   UNL     1     -44.857  41.961  26.091  1.00  0.00     0.091 A 
ATOM     50  C   UNL     1     -44.145  42.264  24.950  1.00  0.00     0.031 A 
ATOM     51  N   UNL     1     -46.005  42.716  26.157  1.00  0.00    -0.237 NA
ATOM     52  N   UNL     1     -44.872  43.237  24.329  1.00  0.00    -0.340 N 
ATOM     53  H   UNL     1     -43.214  41.884  24.555  1.00  0.00     0.084 H 
ATOM     54  C   UNL     1     -45.983  43.477  25.085  1.00  0.00     0.095 A 
ATOM     55  H   UNL     1     -46.734  44.208  24.814  1.00  0.00     0.104 H 
BRANCH  52  56
ATOM     56  C   UNL     1     -44.541  43.903  23.096  1.00  0.00     0.012 C 
ATOM     57  H   UNL     1     -44.753  44.970  23.209  1.00  0.00     0.046 H 
ATOM     58  H   UNL     1     -45.153  43.473  22.298  1.00  0.00     0.046 H 
ATOM     59  H   UNL     1     -43.481  43.757  22.874  1.00  0.00     0.046 H 
ENDBRANCH  52  56
ENDBRANCH  41  49
BRANCH  45  60
ATOM     60  N   UNL     1     -42.175  43.122  27.739  1.00  0.00    -0.383 N 
ATOM     61  H   UNL     1     -42.723  43.210  26.878  1.00  0.00     0.158 HD
ATOM     62  H   UNL     1     -42.155  43.925  28.349  1.00  0.00     0.158 HD
ENDBRANCH  45  60
ENDBRANCH  30  38
ENDBRANCH   1  26
TORSDOF 10
ENDMDL
MODEL 6
REMARK VINA RESULT:      -8.7      3.729      8.112
REMARK SMILES CNc1ccc2ccc(OC[C@H]3O[C@@H](n4cc(-c5cn(C)cn5)c5c(N)ncnc54)[C@@H](F)[C@@H]3O)cc2n1
REMARK SMILES IDX 11 1 10 4 9 5 3 6 4 7 37 8 5 9 36 11 6 12 35 14 7 15 8 17
REMARK SMILES IDX 2 20 1 22 12 26 13 27 33 28 14 30 31 31 32 34 34 36 15 38
REMARK SMILES IDX 16 39 30 40 17 41 24 43 29 44 25 45 28 46 27 47 18 49 19 50
REMARK SMILES IDX 23 51 20 52 22 54 21 56 26 60
REMARK H PARENT 11 2 11 3 4 10 5 13 35 16 7 18 8 19 2 21 1 23 1 24 1 25 12 29
REMARK H PARENT 33 32 14 33 31 35 34 37 16 42 28 48 19 53 22 55 21 57 21 58
REMARK H PARENT 21 59 26 61 26 62
REMARK Flexibility Score: inf
ROOT
ATOM      1  C   UNL     1     -44.754  36.919  28.492  1.00  0.00     0.117 C 
ATOM      2  H   UNL     1     -43.860  36.343  28.755  1.00  0.00     0.073 H 
ATOM      3  H   UNL     1     -44.668  37.226  27.442  1.00  0.00     0.073 H 
ENDROOT
BRANCH   1   4
ATOM      4  O   UNL     1     -44.885  38.068  29.331  1.00  0.00    -0.491 OA
BRANCH   4   5
ATOM      5  C   UNL     1     -44.181  39.185  28.974  1.00  0.00     0.121 A 
ATOM      6  C   UNL     1     -43.786  42.499  25.571  1.00  0.00     0.126 A 
ATOM      7  C   UNL     1     -42.760  43.143  26.256  1.00  0.00    -0.019 A 
ATOM      8  N   UNL     1     -44.382  41.397  26.069  1.00  0.00    -0.231 NA
ATOM      9  C   UNL     1     -42.322  42.628  27.471  1.00  0.00    -0.049 A 
ATOM     10  H   UNL     1     -42.314  44.046  25.854  1.00  0.00     0.066 H 
ATOM     11  C   UNL     1     -43.965  40.895  27.245  1.00  0.00     0.076 A 
ATOM     12  C   UNL     1     -42.924  41.480  27.990  1.00  0.00     0.001 A 
ATOM     13  H   UNL     1     -41.521  43.132  28.006  1.00  0.00     0.063 H 
ATOM     14  C   UNL     1     -44.572  39.756  27.757  1.00  0.00     0.007 A 
ATOM     15  C   UNL     1     -42.524  40.918  29.212  1.00  0.00    -0.049 A 
ATOM     16  H   UNL     1     -45.379  39.300  27.188  1.00  0.00     0.069 H 
ATOM     17  C   UNL     1     -43.151  39.771  29.702  1.00  0.00    -0.019 A 
ATOM     18  H   UNL     1     -41.722  41.371  29.791  1.00  0.00     0.063 H 
ATOM     19  H   UNL     1     -42.814  39.370  30.652  1.00  0.00     0.066 H 
BRANCH   6  20
ATOM     20  N   UNL     1     -44.221  43.064  24.358  1.00  0.00    -0.373 N 
ATOM     21  H   UNL     1     -44.818  43.860  24.561  1.00  0.00     0.161 HD
BRANCH  20  22
ATOM     22  C   UNL     1     -43.144  43.415  23.446  1.00  0.00     0.005 C 
ATOM     23  H   UNL     1     -42.270  42.770  23.588  1.00  0.00     0.045 H 
ATOM     24  H   UNL     1     -43.491  43.272  22.417  1.00  0.00     0.045 H 
ATOM     25  H   UNL     1     -42.850  44.465  23.553  1.00  0.00     0.045 H 
ENDBRANCH  20  22
ENDBRANCH   6  20
ENDBRANCH   4   5
ENDBRANCH   1   4
BRANCH   1  26
ATOM     26  C   UNL     1     -46.010  36.055  28.651  1.00  0.00     0.123 C 
ATOM     27  O   UNL     1     -47.086  36.885  29.140  1.00  0.00    -0.345 OA
ATOM     28  C   UNL     1     -46.480  35.427  27.334  1.00  0.00     0.119 C 
ATOM     29  H   UNL     1     -45.822  35.277  29.400  1.00  0.00     0.067 H 
ATOM     30  C   UNL     1     -48.095  36.956  28.099  1.00  0.00     0.169 C 
ATOM     31  C   UNL     1     -47.449  36.462  26.812  1.00  0.00     0.173 C 
ATOM     32  H   UNL     1     -45.667  35.217  26.634  1.00  0.00     0.066 H 
ATOM     33  H   UNL     1     -48.910  36.295  28.417  1.00  0.00     0.088 H 
ATOM     34  F   UNL     1     -46.730  37.455  26.214  1.00  0.00    -0.239 F 
ATOM     35  H   UNL     1     -48.177  36.079  26.091  1.00  0.00     0.074 H 
BRANCH  28  36
ATOM     36  O   UNL     1     -47.184  34.204  27.578  1.00  0.00    -0.387 OA
ATOM     37  H   UNL     1     -47.042  33.626  26.806  1.00  0.00     0.211 HD
ENDBRANCH  28  36
BRANCH  30  38
ATOM     38  N   UNL     1     -48.632  38.302  28.012  1.00  0.00    -0.302 N 
ATOM     39  C   UNL     1     -47.948  39.456  27.724  1.00  0.00     0.019 A 
ATOM     40  C   UNL     1     -49.958  38.596  28.218  1.00  0.00     0.148 A 
ATOM     41  C   UNL     1     -48.851  40.503  27.734  1.00  0.00     0.033 A 
ATOM     42  H   UNL     1     -46.885  39.439  27.523  1.00  0.00     0.083 H 
ATOM     43  C   UNL     1     -50.134  39.969  28.071  1.00  0.00     0.071 A 
ATOM     44  N   UNL     1     -50.904  37.687  28.512  1.00  0.00    -0.218 NA
ATOM     45  C   UNL     1     -51.440  40.446  28.280  1.00  0.00     0.137 A 
ATOM     46  C   UNL     1     -52.109  38.262  28.657  1.00  0.00     0.120 A 
ATOM     47  N   UNL     1     -52.425  39.564  28.555  1.00  0.00    -0.219 NA
ATOM     48  H   UNL     1     -52.931  37.594  28.889  1.00  0.00     0.106 H 
BRANCH  41  49
ATOM     49  C   UNL     1     -48.538  41.899  27.440  1.00  0.00     0.091 A 
ATOM     50  C   UNL     1     -47.772  42.396  26.408  1.00  0.00     0.031 A 
ATOM     51  N   UNL     1     -49.043  42.927  28.204  1.00  0.00    -0.237 NA
ATOM     52  N   UNL     1     -47.801  43.750  26.567  1.00  0.00    -0.340 N 
ATOM     53  H   UNL     1     -47.226  41.909  25.613  1.00  0.00     0.084 H 
ATOM     54  C   UNL     1     -48.577  44.028  27.655  1.00  0.00     0.095 A 
ATOM     55  H   UNL     1     -48.768  45.036  28.001  1.00  0.00     0.104 H 
BRANCH  52  56
ATOM     56  C   UNL     1     -47.135  44.727  25.745  1.00  0.00     0.012 C 
ATOM     57  H   UNL     1     -46.281  44.250  25.258  1.00  0.00     0.046 H 
ATOM     58  H   UNL     1     -46.801  45.547  26.387  1.00  0.00     0.046 H 
ATOM     59  H   UNL     1     -47.830  45.104  24.989  1.00  0.00     0.046 H 
ENDBRANCH  52  56
ENDBRANCH  41  49
BRANCH  45  60
ATOM     60  N   UNL     1     -51.799  41.784  28.225  1.00  0.00    -0.383 N 
ATOM     61  H   UNL     1     -51.033  42.407  28.498  1.00  0.00     0.158 HD
ATOM     62  H   UNL     1     -52.284  42.007  27.369  1.00  0.00     0.158 HD
ENDBRANCH  45  60
ENDBRANCH  30  38
ENDBRANCH   1  26
TORSDOF 10
ENDMDL
MODEL 7
REMARK VINA RESULT:      -8.4      3.438      6.822
REMARK SMILES CNc1ccc2ccc(OC[C@H]3O[C@@H](n4cc(-c5cn(C)cn5)c5c(N)ncnc54)[C@@H](F)[C@@H]3O)cc2n1
REMARK SMILES IDX 11 1 10 4 9 5 3 6 4 7 37 8 5 9 36 11 6 12 35 14 7 15 8 17
REMARK SMILES IDX 2 20 1 22 12 26 13 27 33 28 14 30 31 31 32 34 34 36 15 38
REMARK SMILES IDX 16 39 30 40 17 41 24 43 29 44 25 45 28 46 27 47 18 49 19 50
REMARK SMILES IDX 23 51 20 52 22 54 21 56 26 60
REMARK H PARENT 11 2 11 3 4 10 5 13 35 16 7 18 8 19 2 21 1 23 1 24 1 25 12 29
REMARK H PARENT 33 32 14 33 31 35 34 37 16 42 28 48 19 53 22 55 21 57 21 58
REMARK H PARENT 21 59 26 61 26 62
REMARK Flexibility Score: inf
ROOT
ATOM      1  C   UNL     1     -43.153  41.089  27.894  1.00  0.00     0.117 C 
ATOM      2  H   UNL     1     -42.517  40.233  28.147  1.00  0.00     0.073 H 
ATOM      3  H   UNL     1     -42.975  41.879  28.635  1.00  0.00     0.073 H 
ENDROOT
BRANCH   1   4
ATOM      4  O   UNL     1     -44.531  40.716  27.895  1.00  0.00    -0.491 OA
BRANCH   4   5
ATOM      5  C   UNL     1     -44.834  39.443  28.293  1.00  0.00     0.121 A 
ATOM      6  C   UNL     1     -47.024  35.447  26.897  1.00  0.00     0.126 A 
ATOM      7  C   UNL     1     -46.700  34.801  28.086  1.00  0.00    -0.019 A 
ATOM      8  N   UNL     1     -46.642  36.717  26.657  1.00  0.00    -0.231 NA
ATOM      9  C   UNL     1     -45.984  35.486  29.062  1.00  0.00    -0.049 A 
ATOM     10  H   UNL     1     -46.991  33.768  28.247  1.00  0.00     0.066 H 
ATOM     11  C   UNL     1     -45.947  37.385  27.596  1.00  0.00     0.076 A 
ATOM     12  C   UNL     1     -45.593  36.806  28.829  1.00  0.00     0.001 A 
ATOM     13  H   UNL     1     -45.730  34.981  29.990  1.00  0.00     0.063 H 
ATOM     14  C   UNL     1     -45.557  38.696  27.356  1.00  0.00     0.007 A 
ATOM     15  C   UNL     1     -44.868  37.545  29.777  1.00  0.00    -0.049 A 
ATOM     16  H   UNL     1     -45.825  39.148  26.404  1.00  0.00     0.069 H 
ATOM     17  C   UNL     1     -44.491  38.862  29.509  1.00  0.00    -0.019 A 
ATOM     18  H   UNL     1     -44.590  37.098  30.729  1.00  0.00     0.063 H 
ATOM     19  H   UNL     1     -43.928  39.397  30.267  1.00  0.00     0.066 H 
BRANCH   6  20
ATOM     20  N   UNL     1     -47.726  34.713  25.922  1.00  0.00    -0.373 N 
ATOM     21  H   UNL     1     -47.230  34.780  25.039  1.00  0.00     0.161 HD
BRANCH  20  22
ATOM     22  C   UNL     1     -47.988  33.331  26.292  1.00  0.00     0.005 C 
ATOM     23  H   UNL     1     -47.109  32.698  26.129  1.00  0.00     0.045 H 
ATOM     24  H   UNL     1     -48.226  33.290  27.360  1.00  0.00     0.045 H 
ATOM     25  H   UNL     1     -48.846  32.923  25.746  1.00  0.00     0.045 H 
ENDBRANCH  20  22
ENDBRANCH   6  20
ENDBRANCH   4   5
ENDBRANCH   1   4
BRANCH   1  26
ATOM     26  C   UNL     1     -42.795  41.627  26.505  1.00  0.00     0.123 C 
ATOM     27  O   UNL     1     -43.996  41.688  25.706  1.00  0.00    -0.345 OA
ATOM     28  C   UNL     1     -42.199  43.039  26.540  1.00  0.00     0.119 C 
ATOM     29  H   UNL     1     -42.102  40.933  26.014  1.00  0.00     0.067 H 
ATOM     30  C   UNL     1     -44.270  43.085  25.428  1.00  0.00     0.169 C 
ATOM     31  C   UNL     1     -43.424  43.910  26.389  1.00  0.00     0.173 C 
ATOM     32  H   UNL     1     -41.637  43.255  27.453  1.00  0.00     0.066 H 
ATOM     33  H   UNL     1     -43.972  43.255  24.386  1.00  0.00     0.088 H 
ATOM     34  F   UNL     1     -44.028  44.011  27.608  1.00  0.00    -0.239 F 
ATOM     35  H   UNL     1     -43.221  44.918  26.018  1.00  0.00     0.074 H 
BRANCH  28  36
ATOM     36  O   UNL     1     -41.330  43.251  25.422  1.00  0.00    -0.387 OA
ATOM     37  H   UNL     1     -41.891  43.418  24.643  1.00  0.00     0.211 HD
ENDBRANCH  28  36
BRANCH  30  38
ATOM     38  N   UNL     1     -45.696  43.346  25.523  1.00  0.00    -0.302 N 
ATOM     39  C   UNL     1     -46.640  42.590  26.171  1.00  0.00     0.019 A 
ATOM     40  C   UNL     1     -46.300  44.436  24.945  1.00  0.00     0.148 A 
ATOM     41  C   UNL     1     -47.865  43.213  26.016  1.00  0.00     0.033 A 
ATOM     42  H   UNL     1     -46.366  41.686  26.697  1.00  0.00     0.083 H 
ATOM     43  C   UNL     1     -47.663  44.380  25.216  1.00  0.00     0.071 A 
ATOM     44  N   UNL     1     -45.654  45.382  24.242  1.00  0.00    -0.218 NA
ATOM     45  C   UNL     1     -48.441  45.415  24.667  1.00  0.00     0.137 A 
ATOM     46  C   UNL     1     -46.498  46.327  23.799  1.00  0.00     0.120 A 
ATOM     47  N   UNL     1     -47.829  46.398  23.973  1.00  0.00    -0.219 NA
ATOM     48  H   UNL     1     -46.054  47.134  23.226  1.00  0.00     0.106 H 
BRANCH  41  49
ATOM     49  C   UNL     1     -49.130  42.753  26.584  1.00  0.00     0.091 A 
ATOM     50  C   UNL     1     -49.452  42.591  27.915  1.00  0.00     0.031 A 
ATOM     51  N   UNL     1     -50.210  42.447  25.787  1.00  0.00    -0.237 NA
ATOM     52  N   UNL     1     -50.745  42.159  27.915  1.00  0.00    -0.340 N 
ATOM     53  H   UNL     1     -48.880  42.736  28.820  1.00  0.00     0.084 H 
ATOM     54  C   UNL     1     -51.164  42.089  26.618  1.00  0.00     0.095 A 
ATOM     55  H   UNL     1     -52.161  41.774  26.335  1.00  0.00     0.104 H 
BRANCH  52  56
ATOM     56  C   UNL     1     -51.542  41.830  29.068  1.00  0.00     0.012 C 
ATOM     57  H   UNL     1     -51.825  42.757  29.573  1.00  0.00     0.046 H 
ATOM     58  H   UNL     1     -50.943  41.200  29.731  1.00  0.00     0.046 H 
ATOM     59  H   UNL     1     -52.440  41.292  28.752  1.00  0.00     0.046 H 
ENDBRANCH  52  56
ENDBRANCH  41  49
BRANCH  45  60
ATOM     60  N   UNL     1     -49.819  45.502  24.788  1.00  0.00    -0.383 N 
ATOM     61  H   UNL     1     -50.130  46.433  25.083  1.00  0.00     0.158 HD
ATOM     62  H   UNL     1     -50.292  45.095  23.995  1.00  0.00     0.158 HD
ENDBRANCH  45  60
ENDBRANCH  30  38
ENDBRANCH   1  26
TORSDOF 10
ENDMDL
